/*---------------------------------------------------------------------------*\
| =========                 |                                                 |
| \\      /  F ield         | OpenFOAM: The Open Source CFD Toolbox           |
|  \\    /   O peration     | Version:  3.0.x                                 |
|   \\  /    A nd           | Web:      www.OpenFOAM.org                      |
|    \\/     M anipulation  |                                                 |
\*---------------------------------------------------------------------------*/
Build  : 3.0.x-4b5e129783d9
Exec   : sonicFoam
Date   : Dec 13 2016
Time   : 16:00:21
Host   : "alex-VirtualBox"
PID    : 8997
Case   : /home/alex/OpenFOAM/alex-3.0.x/run/SH1_58mps
nProcs : 1
sigFpe : Enabling floating point exception trapping (FOAM_SIGFPE).
fileModificationChecking : Monitoring run-time modified files using timeStampMaster
allowSystemOperations : Allowing user-supplied system call operations

// * * * * * * * * * * * * * * * * * * * * * * * * * * * * * * * * * * * * * //
Create time

Create mesh for time = 0


PIMPLE: no residual control data found. Calculations will employ 2 corrector loops

Reading thermophysical properties

Selecting thermodynamics package 
{
    type            hePsiThermo;
    mixture         pureMixture;
    transport       const;
    thermo          hConst;
    equationOfState perfectGas;
    specie          specie;
    energy          sensibleInternalEnergy;
}

Reading field U

Reading/calculating face flux field phi

Creating turbulence model

Selecting turbulence model type laminar
Creating field kinetic energy K

No MRF models present

No finite volume options present


Starting time loop

Time = 1e-05

Courant Number mean: 0.0578711 max: 0.0579
diagonal:  Solving for rho, Initial residual = 0, Final residual = 0, No Iterations 0
PIMPLE: iteration 1
smoothSolver:  Solving for Ux, Initial residual = 0.999809, Final residual = 3.03262e-07, No Iterations 1000
smoothSolver:  Solving for e, Initial residual = 1, Final residual = 3.74488e-12, No Iterations 1000
smoothSolver:  Solving for p, Initial residual = 1, Final residual = 1.93219e-12, No Iterations 1000
diagonal:  Solving for rho, Initial residual = 0, Final residual = 0, No Iterations 0
time step continuity errors : sum local = 1.97097e-16, global = -1.30366e-16, cumulative = -1.30366e-16
PIMPLE: iteration 2
smoothSolver:  Solving for Ux, Initial residual = 0.00852069, Final residual = 5.73271e-14, No Iterations 1000
smoothSolver:  Solving for e, Initial residual = 0.120826, Final residual = 1.08618e-12, No Iterations 1000
smoothSolver:  Solving for p, Initial residual = 0.0307983, Final residual = 4.24067e-13, No Iterations 1000
diagonal:  Solving for rho, Initial residual = 0, Final residual = 0, No Iterations 0
time step continuity errors : sum local = 2.21734e-16, global = -1.65984e-16, cumulative = -2.96349e-16
ExecutionTime = 0.17 s  ClockTime = 0 s

Time = 2e-05

Courant Number mean: 0.0578517 max: 0.0579
diagonal:  Solving for rho, Initial residual = 0, Final residual = 0, No Iterations 0
PIMPLE: iteration 1
smoothSolver:  Solving for Ux, Initial residual = 0.197529, Final residual = 3.90633e-14, No Iterations 1000
smoothSolver:  Solving for e, Initial residual = 0.194151, Final residual = 7.79843e-13, No Iterations 1000
smoothSolver:  Solving for p, Initial residual = 0.19955, Final residual = 3.92032e-13, No Iterations 1000
diagonal:  Solving for rho, Initial residual = 0, Final residual = 0, No Iterations 0
time step continuity errors : sum local = 2.16372e-16, global = -7.95381e-17, cumulative = -3.75887e-16
PIMPLE: iteration 2
smoothSolver:  Solving for Ux, Initial residual = 0.00268903, Final residual = 2.16223e-14, No Iterations 1000
smoothSolver:  Solving for e, Initial residual = 0.0675617, Final residual = 5.29281e-13, No Iterations 1000
smoothSolver:  Solving for p, Initial residual = 0.0128245, Final residual = 2.49332e-13, No Iterations 1000
diagonal:  Solving for rho, Initial residual = 0, Final residual = 0, No Iterations 0
time step continuity errors : sum local = 2.18061e-16, global = -8.03827e-17, cumulative = -4.5627e-16
ExecutionTime = 0.34 s  ClockTime = 0 s

Time = 3e-05

Courant Number mean: 0.0578227 max: 0.0579
diagonal:  Solving for rho, Initial residual = 0, Final residual = 0, No Iterations 0
PIMPLE: iteration 1
smoothSolver:  Solving for Ux, Initial residual = 0.132893, Final residual = 1.6698e-14, No Iterations 1000
smoothSolver:  Solving for e, Initial residual = 0.108386, Final residual = 4.56475e-13, No Iterations 1000
smoothSolver:  Solving for p, Initial residual = 0.111137, Final residual = 1.95801e-13, No Iterations 1000
diagonal:  Solving for rho, Initial residual = 0, Final residual = 0, No Iterations 0
time step continuity errors : sum local = 1.93696e-16, global = -7.17913e-17, cumulative = -5.28061e-16
PIMPLE: iteration 2
smoothSolver:  Solving for Ux, Initial residual = 0.00188694, Final residual = 1.13244e-14, No Iterations 1000
smoothSolver:  Solving for e, Initial residual = 0.0312615, Final residual = 3.54268e-13, No Iterations 1000
smoothSolver:  Solving for p, Initial residual = 0.00669746, Final residual = 1.45889e-13, No Iterations 1000
diagonal:  Solving for rho, Initial residual = 0, Final residual = 0, No Iterations 0
time step continuity errors : sum local = 1.97074e-16, global = -6.61606e-17, cumulative = -5.94222e-16
ExecutionTime = 0.5 s  ClockTime = 1 s

Time = 4e-05

Courant Number mean: 0.0577919 max: 0.0579
diagonal:  Solving for rho, Initial residual = 0, Final residual = 0, No Iterations 0
PIMPLE: iteration 1
smoothSolver:  Solving for Ux, Initial residual = 0.0972826, Final residual = 1.02618e-14, No Iterations 1000
smoothSolver:  Solving for e, Initial residual = 0.0750978, Final residual = 3.23012e-13, No Iterations 1000
smoothSolver:  Solving for p, Initial residual = 0.0770264, Final residual = 1.43046e-13, No Iterations 1000
diagonal:  Solving for rho, Initial residual = 0, Final residual = 0, No Iterations 0
time step continuity errors : sum local = 1.84254e-16, global = -8.43147e-17, cumulative = -6.78537e-16
PIMPLE: iteration 2
smoothSolver:  Solving for Ux, Initial residual = 0.00148875, Final residual = 7.79615e-15, No Iterations 1000
smoothSolver:  Solving for e, Initial residual = 0.021976, Final residual = 2.52125e-13, No Iterations 1000
smoothSolver:  Solving for p, Initial residual = 0.00446679, Final residual = 1.20218e-13, No Iterations 1000
diagonal:  Solving for rho, Initial residual = 0, Final residual = 0, No Iterations 0
time step continuity errors : sum local = 2.01004e-16, global = -6.08079e-17, cumulative = -7.39345e-16
ExecutionTime = 0.66 s  ClockTime = 1 s

Time = 5e-05

Courant Number mean: 0.0577601 max: 0.0579
diagonal:  Solving for rho, Initial residual = 0, Final residual = 0, No Iterations 0
PIMPLE: iteration 1
smoothSolver:  Solving for Ux, Initial residual = 0.0756292, Final residual = 7.70977e-15, No Iterations 1000
smoothSolver:  Solving for e, Initial residual = 0.0573896, Final residual = 2.53851e-13, No Iterations 1000
smoothSolver:  Solving for p, Initial residual = 0.0589429, Final residual = 1.16297e-13, No Iterations 1000
diagonal:  Solving for rho, Initial residual = 0, Final residual = 0, No Iterations 0
time step continuity errors : sum local = 1.86636e-16, global = -5.57374e-17, cumulative = -7.95082e-16
PIMPLE: iteration 2
smoothSolver:  Solving for Ux, Initial residual = 0.00123416, Final residual = 6.12521e-15, No Iterations 1000
smoothSolver:  Solving for e, Initial residual = 0.0160512, Final residual = 2.00168e-13, No Iterations 1000
smoothSolver:  Solving for p, Initial residual = 0.00319523, Final residual = 9.3021e-14, No Iterations 1000
diagonal:  Solving for rho, Initial residual = 0, Final residual = 0, No Iterations 0
time step continuity errors : sum local = 1.87339e-16, global = -6.20712e-17, cumulative = -8.57153e-16
ExecutionTime = 0.82 s  ClockTime = 1 s

Time = 6e-05

Courant Number mean: 0.0577233 max: 0.0579
diagonal:  Solving for rho, Initial residual = 0, Final residual = 0, No Iterations 0
PIMPLE: iteration 1
smoothSolver:  Solving for Ux, Initial residual = 0.0601025, Final residual = 6.10588e-15, No Iterations 1000
smoothSolver:  Solving for e, Initial residual = 0.0465345, Final residual = 1.99094e-13, No Iterations 1000
smoothSolver:  Solving for p, Initial residual = 0.0492247, Final residual = 9.54032e-14, No Iterations 1000
diagonal:  Solving for rho, Initial residual = 0, Final residual = 0, No Iterations 0
time step continuity errors : sum local = 2.01544e-16, global = -7.03714e-17, cumulative = -9.27525e-16
PIMPLE: iteration 2
smoothSolver:  Solving for Ux, Initial residual = 0.000917513, Final residual = 4.60337e-15, No Iterations 1000
smoothSolver:  Solving for e, Initial residual = 0.0129325, Final residual = 1.76895e-13, No Iterations 1000
smoothSolver:  Solving for p, Initial residual = 0.00257909, Final residual = 7.95364e-14, No Iterations 1000
diagonal:  Solving for rho, Initial residual = 0, Final residual = 0, No Iterations 0
time step continuity errors : sum local = 1.88032e-16, global = -6.16453e-17, cumulative = -9.8917e-16
ExecutionTime = 0.99 s  ClockTime = 1 s

Time = 7e-05

Courant Number mean: 0.0576855 max: 0.0579
diagonal:  Solving for rho, Initial residual = 0, Final residual = 0, No Iterations 0
PIMPLE: iteration 1
smoothSolver:  Solving for Ux, Initial residual = 0.0489137, Final residual = 4.55485e-15, No Iterations 1000
smoothSolver:  Solving for e, Initial residual = 0.0391862, Final residual = 1.57103e-13, No Iterations 1000
smoothSolver:  Solving for p, Initial residual = 0.0465403, Final residual = 7.15083e-14, No Iterations 1000
diagonal:  Solving for rho, Initial residual = 0, Final residual = 0, No Iterations 0
time step continuity errors : sum local = 1.83659e-16, global = -6.29084e-17, cumulative = -1.05208e-15
PIMPLE: iteration 2
smoothSolver:  Solving for Ux, Initial residual = 0.000625013, Final residual = 4.05551e-15, No Iterations 1000
smoothSolver:  Solving for e, Initial residual = 0.0104647, Final residual = 1.57821e-13, No Iterations 1000
smoothSolver:  Solving for p, Initial residual = 0.00205026, Final residual = 7.30236e-14, No Iterations 1000
diagonal:  Solving for rho, Initial residual = 0, Final residual = 0, No Iterations 0
time step continuity errors : sum local = 1.95903e-16, global = -5.43236e-17, cumulative = -1.1064e-15
ExecutionTime = 1.15 s  ClockTime = 1 s

Time = 8e-05

Courant Number mean: 0.0576493 max: 0.0579
diagonal:  Solving for rho, Initial residual = 0, Final residual = 0, No Iterations 0
PIMPLE: iteration 1
smoothSolver:  Solving for Ux, Initial residual = 0.0402267, Final residual = 3.75001e-15, No Iterations 1000
smoothSolver:  Solving for e, Initial residual = 0.0367217, Final residual = 1.31404e-13, No Iterations 1000
smoothSolver:  Solving for p, Initial residual = 0.0420133, Final residual = 7.05215e-14, No Iterations 1000
diagonal:  Solving for rho, Initial residual = 0, Final residual = 0, No Iterations 0
time step continuity errors : sum local = 1.80552e-16, global = -4.29216e-17, cumulative = -1.14932e-15
PIMPLE: iteration 2
smoothSolver:  Solving for Ux, Initial residual = 0.000505794, Final residual = 3.33111e-15, No Iterations 1000
smoothSolver:  Solving for e, Initial residual = 0.00895759, Final residual = 1.29386e-13, No Iterations 1000
smoothSolver:  Solving for p, Initial residual = 0.00175769, Final residual = 5.98901e-14, No Iterations 1000
diagonal:  Solving for rho, Initial residual = 0, Final residual = 0, No Iterations 0
time step continuity errors : sum local = 1.90121e-16, global = -5.61499e-17, cumulative = -1.20547e-15
ExecutionTime = 1.31 s  ClockTime = 1 s

Time = 9e-05

Courant Number mean: 0.057615 max: 0.0579
diagonal:  Solving for rho, Initial residual = 0, Final residual = 0, No Iterations 0
PIMPLE: iteration 1
smoothSolver:  Solving for Ux, Initial residual = 0.0335328, Final residual = 3.16254e-15, No Iterations 1000
smoothSolver:  Solving for e, Initial residual = 0.0342755, Final residual = 1.2254e-13, No Iterations 1000
smoothSolver:  Solving for p, Initial residual = 0.0376782, Final residual = 5.21857e-14, No Iterations 1000
diagonal:  Solving for rho, Initial residual = 0, Final residual = 0, No Iterations 0
time step continuity errors : sum local = 1.80401e-16, global = -5.23472e-17, cumulative = -1.25782e-15
PIMPLE: iteration 2
smoothSolver:  Solving for Ux, Initial residual = 0.00041965, Final residual = 3.20041e-15, No Iterations 1000
smoothSolver:  Solving for e, Initial residual = 0.00740709, Final residual = 1.19829e-13, No Iterations 1000
smoothSolver:  Solving for p, Initial residual = 0.00144927, Final residual = 5.32674e-14, No Iterations 1000
diagonal:  Solving for rho, Initial residual = 0, Final residual = 0, No Iterations 0
time step continuity errors : sum local = 1.94473e-16, global = -5.23472e-17, cumulative = -1.31017e-15
ExecutionTime = 1.48 s  ClockTime = 2 s

Time = 0.0001

Courant Number mean: 0.0575799 max: 0.0579
diagonal:  Solving for rho, Initial residual = 0, Final residual = 0, No Iterations 0
PIMPLE: iteration 1
smoothSolver:  Solving for Ux, Initial residual = 0.0283575, Final residual = 2.83177e-15, No Iterations 1000
smoothSolver:  Solving for e, Initial residual = 0.0311351, Final residual = 1.09733e-13, No Iterations 1000
smoothSolver:  Solving for p, Initial residual = 0.0320345, Final residual = 5.52889e-14, No Iterations 1000
diagonal:  Solving for rho, Initial residual = 0, Final residual = 0, No Iterations 0
time step continuity errors : sum local = 1.98542e-16, global = -5.36106e-17, cumulative = -1.36378e-15
PIMPLE: iteration 2
smoothSolver:  Solving for Ux, Initial residual = 0.000381423, Final residual = 2.78419e-15, No Iterations 1000
smoothSolver:  Solving for e, Initial residual = 0.00776635, Final residual = 1.10378e-13, No Iterations 1000
smoothSolver:  Solving for p, Initial residual = 0.00145399, Final residual = 4.84391e-14, No Iterations 1000
diagonal:  Solving for rho, Initial residual = 0, Final residual = 0, No Iterations 0
time step continuity errors : sum local = 1.8222e-16, global = -5.3892e-17, cumulative = -1.41767e-15
ExecutionTime = 1.64 s  ClockTime = 2 s

Time = 0.00011

Courant Number mean: 0.0575416 max: 0.0579
diagonal:  Solving for rho, Initial residual = 0, Final residual = 0, No Iterations 0
PIMPLE: iteration 1
smoothSolver:  Solving for Ux, Initial residual = 0.0268268, Final residual = 2.67824e-15, No Iterations 1000
smoothSolver:  Solving for e, Initial residual = 0.0270513, Final residual = 1.03478e-13, No Iterations 1000
smoothSolver:  Solving for p, Initial residual = 0.0274241, Final residual = 4.36341e-14, No Iterations 1000
diagonal:  Solving for rho, Initial residual = 0, Final residual = 0, No Iterations 0
time step continuity errors : sum local = 1.95013e-16, global = -6.30345e-17, cumulative = -1.4807e-15
PIMPLE: iteration 2
smoothSolver:  Solving for Ux, Initial residual = 0.000331664, Final residual = 2.4652e-15, No Iterations 1000
smoothSolver:  Solving for e, Initial residual = 0.00707962, Final residual = 9.54726e-14, No Iterations 1000
smoothSolver:  Solving for p, Initial residual = 0.00131634, Final residual = 4.32402e-14, No Iterations 1000
diagonal:  Solving for rho, Initial residual = 0, Final residual = 0, No Iterations 0
time step continuity errors : sum local = 1.86149e-16, global = -6.85219e-17, cumulative = -1.54923e-15
ExecutionTime = 1.8 s  ClockTime = 2 s

Time = 0.00012

Courant Number mean: 0.0575041 max: 0.0579
diagonal:  Solving for rho, Initial residual = 0, Final residual = 0, No Iterations 0
PIMPLE: iteration 1
smoothSolver:  Solving for Ux, Initial residual = 0.0250732, Final residual = 2.43465e-15, No Iterations 1000
smoothSolver:  Solving for e, Initial residual = 0.0240057, Final residual = 9.13186e-14, No Iterations 1000
smoothSolver:  Solving for p, Initial residual = 0.0247629, Final residual = 4.13994e-14, No Iterations 1000
diagonal:  Solving for rho, Initial residual = 0, Final residual = 0, No Iterations 0
time step continuity errors : sum local = 1.80932e-16, global = -4.44593e-17, cumulative = -1.59369e-15
PIMPLE: iteration 2
smoothSolver:  Solving for Ux, Initial residual = 0.000295728, Final residual = 2.22436e-15, No Iterations 1000
smoothSolver:  Solving for e, Initial residual = 0.00608145, Final residual = 8.74513e-14, No Iterations 1000
smoothSolver:  Solving for p, Initial residual = 0.00111891, Final residual = 3.9203e-14, No Iterations 1000
diagonal:  Solving for rho, Initial residual = 0, Final residual = 0, No Iterations 0
time step continuity errors : sum local = 1.84168e-16, global = -6.59854e-17, cumulative = -1.65967e-15
ExecutionTime = 1.96 s  ClockTime = 2 s

Time = 0.00013

Courant Number mean: 0.057465 max: 0.0579
diagonal:  Solving for rho, Initial residual = 0, Final residual = 0, No Iterations 0
PIMPLE: iteration 1
smoothSolver:  Solving for Ux, Initial residual = 0.0233057, Final residual = 2.23324e-15, No Iterations 1000
smoothSolver:  Solving for e, Initial residual = 0.0216985, Final residual = 8.517e-14, No Iterations 1000
smoothSolver:  Solving for p, Initial residual = 0.0235441, Final residual = 4.01535e-14, No Iterations 1000
diagonal:  Solving for rho, Initial residual = 0, Final residual = 0, No Iterations 0
time step continuity errors : sum local = 1.85424e-16, global = -3.29205e-17, cumulative = -1.69259e-15
PIMPLE: iteration 2
smoothSolver:  Solving for Ux, Initial residual = 0.000258118, Final residual = 1.89959e-15, No Iterations 1000
smoothSolver:  Solving for e, Initial residual = 0.00515506, Final residual = 7.96694e-14, No Iterations 1000
smoothSolver:  Solving for p, Initial residual = 0.00096235, Final residual = 3.60653e-14, No Iterations 1000
diagonal:  Solving for rho, Initial residual = 0, Final residual = 0, No Iterations 0
time step continuity errors : sum local = 1.76701e-16, global = -3.9392e-17, cumulative = -1.73198e-15
ExecutionTime = 2.12 s  ClockTime = 2 s

Time = 0.00014

Courant Number mean: 0.0574295 max: 0.0579
diagonal:  Solving for rho, Initial residual = 0, Final residual = 0, No Iterations 0
PIMPLE: iteration 1
smoothSolver:  Solving for Ux, Initial residual = 0.0212704, Final residual = 1.96893e-15, No Iterations 1000
smoothSolver:  Solving for e, Initial residual = 0.0206318, Final residual = 8.28298e-14, No Iterations 1000
smoothSolver:  Solving for p, Initial residual = 0.0216505, Final residual = 3.72518e-14, No Iterations 1000
diagonal:  Solving for rho, Initial residual = 0, Final residual = 0, No Iterations 0
time step continuity errors : sum local = 1.88508e-16, global = -4.10779e-17, cumulative = -1.77306e-15
PIMPLE: iteration 2
smoothSolver:  Solving for Ux, Initial residual = 0.000223241, Final residual = 1.97204e-15, No Iterations 1000
smoothSolver:  Solving for e, Initial residual = 0.0044539, Final residual = 7.49022e-14, No Iterations 1000
smoothSolver:  Solving for p, Initial residual = 0.000839685, Final residual = 3.12062e-14, No Iterations 1000
diagonal:  Solving for rho, Initial residual = 0, Final residual = 0, No Iterations 0
time step continuity errors : sum local = 1.79645e-16, global = -3.95304e-17, cumulative = -1.81259e-15
ExecutionTime = 2.29 s  ClockTime = 2 s

Time = 0.00015

Courant Number mean: 0.0573918 max: 0.0579
diagonal:  Solving for rho, Initial residual = 0, Final residual = 0, No Iterations 0
PIMPLE: iteration 1
smoothSolver:  Solving for Ux, Initial residual = 0.0195102, Final residual = 1.90017e-15, No Iterations 1000
smoothSolver:  Solving for e, Initial residual = 0.0190944, Final residual = 7.54544e-14, No Iterations 1000
smoothSolver:  Solving for p, Initial residual = 0.0198963, Final residual = 3.52098e-14, No Iterations 1000
diagonal:  Solving for rho, Initial residual = 0, Final residual = 0, No Iterations 0
time step continuity errors : sum local = 1.83574e-16, global = -3.22133e-17, cumulative = -1.84481e-15
PIMPLE: iteration 2
smoothSolver:  Solving for Ux, Initial residual = 0.00020272, Final residual = 1.86963e-15, No Iterations 1000
smoothSolver:  Solving for e, Initial residual = 0.00422182, Final residual = 7.23523e-14, No Iterations 1000
smoothSolver:  Solving for p, Initial residual = 0.000779473, Final residual = 3.2632e-14, No Iterations 1000
diagonal:  Solving for rho, Initial residual = 0, Final residual = 0, No Iterations 0
time step continuity errors : sum local = 1.87231e-16, global = -3.58707e-17, cumulative = -1.88068e-15
ExecutionTime = 2.45 s  ClockTime = 3 s

Time = 0.00016

Courant Number mean: 0.0573554 max: 0.0579
diagonal:  Solving for rho, Initial residual = 0, Final residual = 0, No Iterations 0
PIMPLE: iteration 1
smoothSolver:  Solving for Ux, Initial residual = 0.0181252, Final residual = 1.79216e-15, No Iterations 1000
smoothSolver:  Solving for e, Initial residual = 0.0177602, Final residual = 7.02102e-14, No Iterations 1000
smoothSolver:  Solving for p, Initial residual = 0.0183883, Final residual = 3.08408e-14, No Iterations 1000
diagonal:  Solving for rho, Initial residual = 0, Final residual = 0, No Iterations 0
time step continuity errors : sum local = 1.73717e-16, global = -3.19301e-17, cumulative = -1.91261e-15
PIMPLE: iteration 2
smoothSolver:  Solving for Ux, Initial residual = 0.00018376, Final residual = 1.71155e-15, No Iterations 1000
smoothSolver:  Solving for e, Initial residual = 0.00388739, Final residual = 6.57794e-14, No Iterations 1000
smoothSolver:  Solving for p, Initial residual = 0.000719938, Final residual = 2.87265e-14, No Iterations 1000
diagonal:  Solving for rho, Initial residual = 0, Final residual = 0, No Iterations 0
time step continuity errors : sum local = 1.78218e-16, global = -1.25189e-17, cumulative = -1.92513e-15
ExecutionTime = 2.61 s  ClockTime = 3 s

Time = 0.00017

Courant Number mean: 0.0573182 max: 0.0579
diagonal:  Solving for rho, Initial residual = 0, Final residual = 0, No Iterations 0
PIMPLE: iteration 1
smoothSolver:  Solving for Ux, Initial residual = 0.0169579, Final residual = 1.58537e-15, No Iterations 1000
smoothSolver:  Solving for e, Initial residual = 0.0165461, Final residual = 6.6225e-14, No Iterations 1000
smoothSolver:  Solving for p, Initial residual = 0.0172803, Final residual = 2.73128e-14, No Iterations 1000
diagonal:  Solving for rho, Initial residual = 0, Final residual = 0, No Iterations 0
time step continuity errors : sum local = 1.92132e-16, global = -4.64156e-17, cumulative = -1.97154e-15
PIMPLE: iteration 2
smoothSolver:  Solving for Ux, Initial residual = 0.000166264, Final residual = 1.61611e-15, No Iterations 1000
smoothSolver:  Solving for e, Initial residual = 0.00337824, Final residual = 5.97421e-14, No Iterations 1000
smoothSolver:  Solving for p, Initial residual = 0.000630019, Final residual = 2.79477e-14, No Iterations 1000
diagonal:  Solving for rho, Initial residual = 0, Final residual = 0, No Iterations 0
time step continuity errors : sum local = 1.85944e-16, global = -2.95372e-17, cumulative = -2.00108e-15
ExecutionTime = 2.78 s  ClockTime = 3 s

Time = 0.00018

Courant Number mean: 0.0572817 max: 0.0579
diagonal:  Solving for rho, Initial residual = 0, Final residual = 0, No Iterations 0
PIMPLE: iteration 1
smoothSolver:  Solving for Ux, Initial residual = 0.0159747, Final residual = 1.54421e-15, No Iterations 1000
smoothSolver:  Solving for e, Initial residual = 0.0156526, Final residual = 6.18953e-14, No Iterations 1000
smoothSolver:  Solving for p, Initial residual = 0.0159681, Final residual = 2.68871e-14, No Iterations 1000
diagonal:  Solving for rho, Initial residual = 0, Final residual = 0, No Iterations 0
time step continuity errors : sum local = 1.82417e-16, global = -4.3178e-17, cumulative = -2.04426e-15
PIMPLE: iteration 2
smoothSolver:  Solving for Ux, Initial residual = 0.000153224, Final residual = 1.49754e-15, No Iterations 1000
smoothSolver:  Solving for e, Initial residual = 0.00319707, Final residual = 5.8986e-14, No Iterations 1000
smoothSolver:  Solving for p, Initial residual = 0.000590971, Final residual = 2.51632e-14, No Iterations 1000
diagonal:  Solving for rho, Initial residual = 0, Final residual = 0, No Iterations 0
time step continuity errors : sum local = 1.79744e-16, global = -3.17858e-17, cumulative = -2.07604e-15
ExecutionTime = 2.94 s  ClockTime = 3 s

Time = 0.00019

Courant Number mean: 0.0572444 max: 0.0579
diagonal:  Solving for rho, Initial residual = 0, Final residual = 0, No Iterations 0
PIMPLE: iteration 1
smoothSolver:  Solving for Ux, Initial residual = 0.0150208, Final residual = 1.53159e-15, No Iterations 1000
smoothSolver:  Solving for e, Initial residual = 0.0145909, Final residual = 5.7332e-14, No Iterations 1000
smoothSolver:  Solving for p, Initial residual = 0.0149959, Final residual = 2.71112e-14, No Iterations 1000
diagonal:  Solving for rho, Initial residual = 0, Final residual = 0, No Iterations 0
time step continuity errors : sum local = 1.855e-16, global = -3.07995e-17, cumulative = -2.10684e-15
PIMPLE: iteration 2
smoothSolver:  Solving for Ux, Initial residual = 0.000141487, Final residual = 1.43638e-15, No Iterations 1000
smoothSolver:  Solving for e, Initial residual = 0.00298409, Final residual = 5.52584e-14, No Iterations 1000
smoothSolver:  Solving for p, Initial residual = 0.000552708, Final residual = 2.59288e-14, No Iterations 1000
diagonal:  Solving for rho, Initial residual = 0, Final residual = 0, No Iterations 0
time step continuity errors : sum local = 1.79593e-16, global = -2.34864e-17, cumulative = -2.13033e-15
ExecutionTime = 3.1 s  ClockTime = 3 s

Time = 0.0002

Courant Number mean: 0.0572071 max: 0.0579
diagonal:  Solving for rho, Initial residual = 0, Final residual = 0, No Iterations 0
PIMPLE: iteration 1
smoothSolver:  Solving for Ux, Initial residual = 0.0142158, Final residual = 1.39598e-15, No Iterations 1000
smoothSolver:  Solving for e, Initial residual = 0.0137329, Final residual = 5.64537e-14, No Iterations 1000
smoothSolver:  Solving for p, Initial residual = 0.0141245, Final residual = 2.51747e-14, No Iterations 1000
diagonal:  Solving for rho, Initial residual = 0, Final residual = 0, No Iterations 0
time step continuity errors : sum local = 1.85489e-16, global = -3.27665e-17, cumulative = -2.16309e-15
PIMPLE: iteration 2
smoothSolver:  Solving for Ux, Initial residual = 0.000130097, Final residual = 1.32627e-15, No Iterations 1000
smoothSolver:  Solving for e, Initial residual = 0.00276437, Final residual = 5.33668e-14, No Iterations 1000
smoothSolver:  Solving for p, Initial residual = 0.000505815, Final residual = 2.39309e-14, No Iterations 1000
diagonal:  Solving for rho, Initial residual = 0, Final residual = 0, No Iterations 0
time step continuity errors : sum local = 1.89568e-16, global = -2.8407e-17, cumulative = -2.1915e-15
ExecutionTime = 3.26 s  ClockTime = 4 s

Time = 0.00021

Courant Number mean: 0.0571701 max: 0.0579
diagonal:  Solving for rho, Initial residual = 0, Final residual = 0, No Iterations 0
PIMPLE: iteration 1
smoothSolver:  Solving for Ux, Initial residual = 0.013377, Final residual = 1.28771e-15, No Iterations 1000
smoothSolver:  Solving for e, Initial residual = 0.0130005, Final residual = 5.30792e-14, No Iterations 1000
smoothSolver:  Solving for p, Initial residual = 0.0135495, Final residual = 2.34861e-14, No Iterations 1000
diagonal:  Solving for rho, Initial residual = 0, Final residual = 0, No Iterations 0
time step continuity errors : sum local = 1.75495e-16, global = -1.7437e-17, cumulative = -2.20894e-15
PIMPLE: iteration 2
smoothSolver:  Solving for Ux, Initial residual = 0.000120643, Final residual = 1.28776e-15, No Iterations 1000
smoothSolver:  Solving for e, Initial residual = 0.0025155, Final residual = 5.19301e-14, No Iterations 1000
smoothSolver:  Solving for p, Initial residual = 0.000463338, Final residual = 2.21225e-14, No Iterations 1000
diagonal:  Solving for rho, Initial residual = 0, Final residual = 0, No Iterations 0
time step continuity errors : sum local = 1.79573e-16, global = -2.46086e-17, cumulative = -2.23355e-15
ExecutionTime = 3.42 s  ClockTime = 4 s

Time = 0.00022

Courant Number mean: 0.0571335 max: 0.0579
diagonal:  Solving for rho, Initial residual = 0, Final residual = 0, No Iterations 0
PIMPLE: iteration 1
smoothSolver:  Solving for Ux, Initial residual = 0.0127101, Final residual = 1.24933e-15, No Iterations 1000
smoothSolver:  Solving for e, Initial residual = 0.0125066, Final residual = 4.88314e-14, No Iterations 1000
smoothSolver:  Solving for p, Initial residual = 0.012828, Final residual = 2.20186e-14, No Iterations 1000
diagonal:  Solving for rho, Initial residual = 0, Final residual = 0, No Iterations 0
time step continuity errors : sum local = 1.82937e-16, global = -1.92639e-17, cumulative = -2.25281e-15
PIMPLE: iteration 2
smoothSolver:  Solving for Ux, Initial residual = 0.00011192, Final residual = 1.21696e-15, No Iterations 1000
smoothSolver:  Solving for e, Initial residual = 0.00226063, Final residual = 4.90765e-14, No Iterations 1000
smoothSolver:  Solving for p, Initial residual = 0.000418742, Final residual = 2.17052e-14, No Iterations 1000
diagonal:  Solving for rho, Initial residual = 0, Final residual = 0, No Iterations 0
time step continuity errors : sum local = 1.90389e-16, global = -8.43675e-19, cumulative = -2.25365e-15
ExecutionTime = 3.59 s  ClockTime = 4 s

Time = 0.00023

Courant Number mean: 0.057097 max: 0.0579
diagonal:  Solving for rho, Initial residual = 0, Final residual = 0, No Iterations 0
PIMPLE: iteration 1
smoothSolver:  Solving for Ux, Initial residual = 0.0121124, Final residual = 1.22098e-15, No Iterations 1000
smoothSolver:  Solving for e, Initial residual = 0.0119035, Final residual = 4.63399e-14, No Iterations 1000
smoothSolver:  Solving for p, Initial residual = 0.0121941, Final residual = 2.29546e-14, No Iterations 1000
diagonal:  Solving for rho, Initial residual = 0, Final residual = 0, No Iterations 0
time step continuity errors : sum local = 1.89254e-16, global = -2.0247e-17, cumulative = -2.2739e-15
PIMPLE: iteration 2
smoothSolver:  Solving for Ux, Initial residual = 0.00010532, Final residual = 1.15237e-15, No Iterations 1000
smoothSolver:  Solving for e, Initial residual = 0.00215805, Final residual = 4.74537e-14, No Iterations 1000
smoothSolver:  Solving for p, Initial residual = 0.000395536, Final residual = 2.08695e-14, No Iterations 1000
diagonal:  Solving for rho, Initial residual = 0, Final residual = 0, No Iterations 0
time step continuity errors : sum local = 1.82223e-16, global = -5.34297e-18, cumulative = -2.27924e-15
ExecutionTime = 3.75 s  ClockTime = 4 s

Time = 0.00024

Courant Number mean: 0.05706 max: 0.0579
diagonal:  Solving for rho, Initial residual = 0, Final residual = 0, No Iterations 0
PIMPLE: iteration 1
smoothSolver:  Solving for Ux, Initial residual = 0.0115627, Final residual = 1.1557e-15, No Iterations 1000
smoothSolver:  Solving for e, Initial residual = 0.0113475, Final residual = 4.50288e-14, No Iterations 1000
smoothSolver:  Solving for p, Initial residual = 0.0115163, Final residual = 2.07249e-14, No Iterations 1000
diagonal:  Solving for rho, Initial residual = 0, Final residual = 0, No Iterations 0
time step continuity errors : sum local = 1.83338e-16, global = -2.47449e-17, cumulative = -2.30399e-15
PIMPLE: iteration 2
smoothSolver:  Solving for Ux, Initial residual = 9.93364e-05, Final residual = 1.14881e-15, No Iterations 1000
smoothSolver:  Solving for e, Initial residual = 0.00206676, Final residual = 4.43561e-14, No Iterations 1000
smoothSolver:  Solving for p, Initial residual = 0.000379446, Final residual = 2.01413e-14, No Iterations 1000
diagonal:  Solving for rho, Initial residual = 0, Final residual = 0, No Iterations 0
time step continuity errors : sum local = 1.83056e-16, global = -1.99647e-17, cumulative = -2.32395e-15
ExecutionTime = 3.91 s  ClockTime = 4 s

Time = 0.00025

Courant Number mean: 0.057023 max: 0.0579
diagonal:  Solving for rho, Initial residual = 0, Final residual = 0, No Iterations 0
PIMPLE: iteration 1
smoothSolver:  Solving for Ux, Initial residual = 0.0110586, Final residual = 1.13246e-15, No Iterations 1000
smoothSolver:  Solving for e, Initial residual = 0.0107949, Final residual = 4.4552e-14, No Iterations 1000
smoothSolver:  Solving for p, Initial residual = 0.0110237, Final residual = 2.02894e-14, No Iterations 1000
diagonal:  Solving for rho, Initial residual = 0, Final residual = 0, No Iterations 0
time step continuity errors : sum local = 2.07649e-16, global = -8.85706e-18, cumulative = -2.33281e-15
PIMPLE: iteration 2
smoothSolver:  Solving for Ux, Initial residual = 9.34274e-05, Final residual = 1.10142e-15, No Iterations 1000
smoothSolver:  Solving for e, Initial residual = 0.001918, Final residual = 4.02162e-14, No Iterations 1000
smoothSolver:  Solving for p, Initial residual = 0.000352827, Final residual = 1.85235e-14, No Iterations 1000
diagonal:  Solving for rho, Initial residual = 0, Final residual = 0, No Iterations 0
time step continuity errors : sum local = 1.84733e-16, global = -2.02447e-17, cumulative = -2.35306e-15
ExecutionTime = 4.08 s  ClockTime = 4 s

Time = 0.00026

Courant Number mean: 0.0569861 max: 0.0579
diagonal:  Solving for rho, Initial residual = 0, Final residual = 0, No Iterations 0
PIMPLE: iteration 1
smoothSolver:  Solving for Ux, Initial residual = 0.0106318, Final residual = 1.0366e-15, No Iterations 1000
smoothSolver:  Solving for e, Initial residual = 0.0103385, Final residual = 4.34059e-14, No Iterations 1000
smoothSolver:  Solving for p, Initial residual = 0.0105651, Final residual = 1.90022e-14, No Iterations 1000
diagonal:  Solving for rho, Initial residual = 0, Final residual = 0, No Iterations 0
time step continuity errors : sum local = 1.91751e-16, global = -4.2174e-18, cumulative = -2.35727e-15
PIMPLE: iteration 2
smoothSolver:  Solving for Ux, Initial residual = 8.806e-05, Final residual = 1.06059e-15, No Iterations 1000
smoothSolver:  Solving for e, Initial residual = 0.00182529, Final residual = 3.97961e-14, No Iterations 1000
smoothSolver:  Solving for p, Initial residual = 0.000333336, Final residual = 1.89935e-14, No Iterations 1000
diagonal:  Solving for rho, Initial residual = 0, Final residual = 0, No Iterations 0
time step continuity errors : sum local = 1.87534e-16, global = -1.74319e-17, cumulative = -2.37471e-15
ExecutionTime = 4.24 s  ClockTime = 5 s

Time = 0.00027

Courant Number mean: 0.0569495 max: 0.0579
diagonal:  Solving for rho, Initial residual = 0, Final residual = 0, No Iterations 0
PIMPLE: iteration 1
smoothSolver:  Solving for Ux, Initial residual = 0.0102109, Final residual = 1.01534e-15, No Iterations 1000
smoothSolver:  Solving for e, Initial residual = 0.0099488, Final residual = 3.96874e-14, No Iterations 1000
smoothSolver:  Solving for p, Initial residual = 0.0101829, Final residual = 1.88277e-14, No Iterations 1000
diagonal:  Solving for rho, Initial residual = 0, Final residual = 0, No Iterations 0
time step continuity errors : sum local = 1.79089e-16, global = -1.09646e-17, cumulative = -2.38567e-15
PIMPLE: iteration 2
smoothSolver:  Solving for Ux, Initial residual = 8.32301e-05, Final residual = 1.02744e-15, No Iterations 1000
smoothSolver:  Solving for e, Initial residual = 0.00168641, Final residual = 3.99515e-14, No Iterations 1000
smoothSolver:  Solving for p, Initial residual = 0.000309488, Final residual = 1.68424e-14, No Iterations 1000
diagonal:  Solving for rho, Initial residual = 0, Final residual = 0, No Iterations 0
time step continuity errors : sum local = 1.80494e-16, global = -1.74309e-17, cumulative = -2.4031e-15
ExecutionTime = 4.41 s  ClockTime = 5 s

Time = 0.00028

Courant Number mean: 0.0569128 max: 0.0579
diagonal:  Solving for rho, Initial residual = 0, Final residual = 0, No Iterations 0
PIMPLE: iteration 1
smoothSolver:  Solving for Ux, Initial residual = 0.00980137, Final residual = 9.85383e-16, No Iterations 2
smoothSolver:  Solving for e, Initial residual = 0.00959021, Final residual = 3.78412e-14, No Iterations 1000
smoothSolver:  Solving for p, Initial residual = 0.00978146, Final residual = 1.80817e-14, No Iterations 1000
diagonal:  Solving for rho, Initial residual = 0, Final residual = 0, No Iterations 0
time step continuity errors : sum local = 1.9201e-16, global = -1.79922e-17, cumulative = -2.42109e-15
PIMPLE: iteration 2
smoothSolver:  Solving for Ux, Initial residual = 7.88491e-05, Final residual = 9.30496e-16, No Iterations 2
smoothSolver:  Solving for e, Initial residual = 0.0015823, Final residual = 3.80877e-14, No Iterations 1000
smoothSolver:  Solving for p, Initial residual = 0.000288868, Final residual = 1.78952e-14, No Iterations 1000
diagonal:  Solving for rho, Initial residual = 0, Final residual = 0, No Iterations 0
time step continuity errors : sum local = 1.82873e-16, global = -2.57232e-17, cumulative = -2.44682e-15
ExecutionTime = 4.52 s  ClockTime = 5 s

Time = 0.00029

Courant Number mean: 0.0568761 max: 0.0579
diagonal:  Solving for rho, Initial residual = 0, Final residual = 0, No Iterations 0
PIMPLE: iteration 1
smoothSolver:  Solving for Ux, Initial residual = 0.00942073, Final residual = 9.47514e-16, No Iterations 2
smoothSolver:  Solving for e, Initial residual = 0.0092369, Final residual = 3.76406e-14, No Iterations 1000
smoothSolver:  Solving for p, Initial residual = 0.00942039, Final residual = 1.76528e-14, No Iterations 1000
diagonal:  Solving for rho, Initial residual = 0, Final residual = 0, No Iterations 0
time step continuity errors : sum local = 1.86517e-16, global = -1.27906e-17, cumulative = -2.45961e-15
PIMPLE: iteration 2
smoothSolver:  Solving for Ux, Initial residual = 7.50107e-05, Final residual = 9.35388e-16, No Iterations 2
smoothSolver:  Solving for e, Initial residual = 0.00152998, Final residual = 3.71604e-14, No Iterations 1000
smoothSolver:  Solving for p, Initial residual = 0.000279222, Final residual = 1.64846e-14, No Iterations 1000
diagonal:  Solving for rho, Initial residual = 0, Final residual = 0, No Iterations 0
time step continuity errors : sum local = 1.82301e-16, global = -2.20672e-17, cumulative = -2.48167e-15
ExecutionTime = 4.62 s  ClockTime = 5 s

Time = 0.0003

Courant Number mean: 0.0568393 max: 0.0579
diagonal:  Solving for rho, Initial residual = 0, Final residual = 0, No Iterations 0
PIMPLE: iteration 1
smoothSolver:  Solving for Ux, Initial residual = 0.00907568, Final residual = 9.31258e-16, No Iterations 2
smoothSolver:  Solving for e, Initial residual = 0.00890967, Final residual = 3.65007e-14, No Iterations 1000
smoothSolver:  Solving for p, Initial residual = 0.00905913, Final residual = 1.65752e-14, No Iterations 1000
diagonal:  Solving for rho, Initial residual = 0, Final residual = 0, No Iterations 0
time step continuity errors : sum local = 1.90442e-16, global = -1.86928e-17, cumulative = -2.50037e-15
PIMPLE: iteration 2
smoothSolver:  Solving for Ux, Initial residual = 7.14873e-05, Final residual = 9.40663e-16, No Iterations 2
smoothSolver:  Solving for e, Initial residual = 0.00144651, Final residual = 3.72432e-14, No Iterations 1000
smoothSolver:  Solving for p, Initial residual = 0.00026464, Final residual = 1.6567e-14, No Iterations 1000
diagonal:  Solving for rho, Initial residual = 0, Final residual = 0, No Iterations 0
time step continuity errors : sum local = 1.83836e-16, global = -2.13632e-17, cumulative = -2.52173e-15
ExecutionTime = 4.74 s  ClockTime = 5 s

Time = 0.00031

Courant Number mean: 0.0568027 max: 0.0579
diagonal:  Solving for rho, Initial residual = 0, Final residual = 0, No Iterations 0
PIMPLE: iteration 1
smoothSolver:  Solving for Ux, Initial residual = 0.00879108, Final residual = 8.94598e-16, No Iterations 2
smoothSolver:  Solving for e, Initial residual = 0.00859644, Final residual = 3.59257e-14, No Iterations 1000
smoothSolver:  Solving for p, Initial residual = 0.00876002, Final residual = 1.65843e-14, No Iterations 1000
diagonal:  Solving for rho, Initial residual = 0, Final residual = 0, No Iterations 0
time step continuity errors : sum local = 1.82982e-16, global = -1.09621e-17, cumulative = -2.53269e-15
PIMPLE: iteration 2
smoothSolver:  Solving for Ux, Initial residual = 6.81135e-05, Final residual = 8.87113e-16, No Iterations 2
smoothSolver:  Solving for e, Initial residual = 0.00137712, Final residual = 3.44984e-14, No Iterations 1000
smoothSolver:  Solving for p, Initial residual = 0.000250113, Final residual = 1.52671e-14, No Iterations 1000
diagonal:  Solving for rho, Initial residual = 0, Final residual = 0, No Iterations 0
time step continuity errors : sum local = 1.81296e-16, global = -1.85512e-17, cumulative = -2.55124e-15
ExecutionTime = 4.84 s  ClockTime = 5 s

Time = 0.00032

Courant Number mean: 0.0567659 max: 0.0579
diagonal:  Solving for rho, Initial residual = 0, Final residual = 0, No Iterations 0
PIMPLE: iteration 1
smoothSolver:  Solving for Ux, Initial residual = 0.00850702, Final residual = 8.52531e-16, No Iterations 2
smoothSolver:  Solving for e, Initial residual = 0.00831499, Final residual = 3.46844e-14, No Iterations 1000
smoothSolver:  Solving for p, Initial residual = 0.00846177, Final residual = 1.48681e-14, No Iterations 1000
diagonal:  Solving for rho, Initial residual = 0, Final residual = 0, No Iterations 0
time step continuity errors : sum local = 1.80442e-16, global = -1.99554e-17, cumulative = -2.5712e-15
PIMPLE: iteration 2
smoothSolver:  Solving for Ux, Initial residual = 6.50402e-05, Final residual = 8.32841e-16, No Iterations 2
smoothSolver:  Solving for e, Initial residual = 0.00131827, Final residual = 3.30923e-14, No Iterations 1000
smoothSolver:  Solving for p, Initial residual = 0.000240181, Final residual = 1.45433e-14, No Iterations 1000
diagonal:  Solving for rho, Initial residual = 0, Final residual = 0, No Iterations 0
time step continuity errors : sum local = 1.78896e-16, global = -4.63753e-18, cumulative = -2.57584e-15
ExecutionTime = 4.95 s  ClockTime = 5 s

Time = 0.00033

Courant Number mean: 0.0567294 max: 0.0579
diagonal:  Solving for rho, Initial residual = 0, Final residual = 0, No Iterations 0
PIMPLE: iteration 1
smoothSolver:  Solving for Ux, Initial residual = 0.00823762, Final residual = 8.35373e-16, No Iterations 2
smoothSolver:  Solving for e, Initial residual = 0.00805628, Final residual = 3.34179e-14, No Iterations 1000
smoothSolver:  Solving for p, Initial residual = 0.00819975, Final residual = 1.46366e-14, No Iterations 1000
diagonal:  Solving for rho, Initial residual = 0, Final residual = 0, No Iterations 0
time step continuity errors : sum local = 1.79589e-16, global = -1.18039e-17, cumulative = -2.58764e-15
PIMPLE: iteration 2
smoothSolver:  Solving for Ux, Initial residual = 6.21948e-05, Final residual = 8.10385e-16, No Iterations 2
smoothSolver:  Solving for e, Initial residual = 0.00124583, Final residual = 3.17128e-14, No Iterations 1000
smoothSolver:  Solving for p, Initial residual = 0.000227517, Final residual = 1.55468e-14, No Iterations 1000
diagonal:  Solving for rho, Initial residual = 0, Final residual = 0, No Iterations 0
time step continuity errors : sum local = 1.91393e-16, global = -1.60196e-17, cumulative = -2.60366e-15
ExecutionTime = 5.06 s  ClockTime = 5 s

Time = 0.00034

Courant Number mean: 0.0566926 max: 0.0579
diagonal:  Solving for rho, Initial residual = 0, Final residual = 0, No Iterations 0
PIMPLE: iteration 1
smoothSolver:  Solving for Ux, Initial residual = 0.00797375, Final residual = 8.32908e-16, No Iterations 2
smoothSolver:  Solving for e, Initial residual = 0.00780639, Final residual = 3.20632e-14, No Iterations 1000
smoothSolver:  Solving for p, Initial residual = 0.00794878, Final residual = 1.40339e-14, No Iterations 1000
diagonal:  Solving for rho, Initial residual = 0, Final residual = 0, No Iterations 0
time step continuity errors : sum local = 1.75363e-16, global = -1.40515e-18, cumulative = -2.60506e-15
PIMPLE: iteration 2
smoothSolver:  Solving for Ux, Initial residual = 5.96017e-05, Final residual = 8.0688e-16, No Iterations 2
smoothSolver:  Solving for e, Initial residual = 0.00119765, Final residual = 3.31681e-14, No Iterations 1000
smoothSolver:  Solving for p, Initial residual = 0.000217313, Final residual = 1.41744e-14, No Iterations 1000
diagonal:  Solving for rho, Initial residual = 0, Final residual = 0, No Iterations 0
time step continuity errors : sum local = 1.73677e-16, global = -2.10773e-17, cumulative = -2.62614e-15
ExecutionTime = 5.18 s  ClockTime = 6 s

Time = 0.00035

Courant Number mean: 0.0566561 max: 0.0579
diagonal:  Solving for rho, Initial residual = 0, Final residual = 0, No Iterations 0
PIMPLE: iteration 1
smoothSolver:  Solving for Ux, Initial residual = 0.00773366, Final residual = 7.82143e-16, No Iterations 2
smoothSolver:  Solving for e, Initial residual = 0.00758837, Final residual = 3.17409e-14, No Iterations 1000
smoothSolver:  Solving for p, Initial residual = 0.00770677, Final residual = 1.37904e-14, No Iterations 1000
diagonal:  Solving for rho, Initial residual = 0, Final residual = 0, No Iterations 0
time step continuity errors : sum local = 1.90246e-16, global = -4.21521e-18, cumulative = -2.63036e-15
PIMPLE: iteration 2
smoothSolver:  Solving for Ux, Initial residual = 5.716e-05, Final residual = 7.85769e-16, No Iterations 2
smoothSolver:  Solving for e, Initial residual = 0.00115096, Final residual = 3.09931e-14, No Iterations 1000
smoothSolver:  Solving for p, Initial residual = 0.000209348, Final residual = 1.36808e-14, No Iterations 1000
diagonal:  Solving for rho, Initial residual = 0, Final residual = 0, No Iterations 0
time step continuity errors : sum local = 1.86031e-16, global = -1.15216e-17, cumulative = -2.64188e-15
ExecutionTime = 5.29 s  ClockTime = 6 s

Time = 0.00036

Courant Number mean: 0.0566194 max: 0.0579
diagonal:  Solving for rho, Initial residual = 0, Final residual = 0, No Iterations 0
PIMPLE: iteration 1
smoothSolver:  Solving for Ux, Initial residual = 0.00750708, Final residual = 7.37965e-16, No Iterations 2
smoothSolver:  Solving for e, Initial residual = 0.00736162, Final residual = 3.0984e-14, No Iterations 1000
smoothSolver:  Solving for p, Initial residual = 0.00748426, Final residual = 1.4561e-14, No Iterations 1000
diagonal:  Solving for rho, Initial residual = 0, Final residual = 0, No Iterations 0
time step continuity errors : sum local = 1.83913e-16, global = -1.86863e-17, cumulative = -2.66057e-15
PIMPLE: iteration 2
smoothSolver:  Solving for Ux, Initial residual = 5.49118e-05, Final residual = 7.40508e-16, No Iterations 2
smoothSolver:  Solving for e, Initial residual = 0.00109166, Final residual = 3.02513e-14, No Iterations 1000
smoothSolver:  Solving for p, Initial residual = 0.000198196, Final residual = 1.3629e-14, No Iterations 1000
diagonal:  Solving for rho, Initial residual = 0, Final residual = 0, No Iterations 0
time step continuity errors : sum local = 1.85739e-16, global = -4.77696e-18, cumulative = -2.66534e-15
ExecutionTime = 5.4 s  ClockTime = 6 s

Time = 0.00037

Courant Number mean: 0.0565829 max: 0.0579
diagonal:  Solving for rho, Initial residual = 0, Final residual = 0, No Iterations 0
PIMPLE: iteration 1
smoothSolver:  Solving for Ux, Initial residual = 0.00730635, Final residual = 7.60048e-16, No Iterations 2
smoothSolver:  Solving for e, Initial residual = 0.00716515, Final residual = 2.86154e-14, No Iterations 1000
smoothSolver:  Solving for p, Initial residual = 0.00726972, Final residual = 1.40549e-14, No Iterations 1000
diagonal:  Solving for rho, Initial residual = 0, Final residual = 0, No Iterations 0
time step continuity errors : sum local = 1.88258e-16, global = -1.09583e-17, cumulative = -2.6763e-15
PIMPLE: iteration 2
smoothSolver:  Solving for Ux, Initial residual = 5.28005e-05, Final residual = 7.29876e-16, No Iterations 2
smoothSolver:  Solving for e, Initial residual = 0.00106439, Final residual = 2.8417e-14, No Iterations 1000
smoothSolver:  Solving for p, Initial residual = 0.000192795, Final residual = 1.33283e-14, No Iterations 1000
diagonal:  Solving for rho, Initial residual = 0, Final residual = 0, No Iterations 0
time step continuity errors : sum local = 1.78002e-16, global = -1.36276e-17, cumulative = -2.68993e-15
ExecutionTime = 5.5 s  ClockTime = 6 s

Time = 0.00038

Courant Number mean: 0.0565462 max: 0.0579
diagonal:  Solving for rho, Initial residual = 0, Final residual = 0, No Iterations 0
PIMPLE: iteration 1
smoothSolver:  Solving for Ux, Initial residual = 0.00710273, Final residual = 7.08937e-16, No Iterations 2
smoothSolver:  Solving for e, Initial residual = 0.00696327, Final residual = 2.9232e-14, No Iterations 1000
smoothSolver:  Solving for p, Initial residual = 0.00707003, Final residual = 1.36735e-14, No Iterations 1000
diagonal:  Solving for rho, Initial residual = 0, Final residual = 0, No Iterations 0
time step continuity errors : sum local = 1.8052e-16, global = -1.27839e-17, cumulative = -2.70271e-15
PIMPLE: iteration 2
smoothSolver:  Solving for Ux, Initial residual = 5.08443e-05, Final residual = 6.99764e-16, No Iterations 2
smoothSolver:  Solving for e, Initial residual = 0.00102065, Final residual = 2.88767e-14, No Iterations 1000
smoothSolver:  Solving for p, Initial residual = 0.000185306, Final residual = 1.33925e-14, No Iterations 1000
diagonal:  Solving for rho, Initial residual = 0, Final residual = 0, No Iterations 0
time step continuity errors : sum local = 1.82346e-16, global = -2.89394e-17, cumulative = -2.73165e-15
ExecutionTime = 5.61 s  ClockTime = 6 s

Time = 0.00039

Courant Number mean: 0.0565097 max: 0.0579
diagonal:  Solving for rho, Initial residual = 0, Final residual = 0, No Iterations 0
PIMPLE: iteration 1
smoothSolver:  Solving for Ux, Initial residual = 0.00691762, Final residual = 6.7826e-16, No Iterations 2
smoothSolver:  Solving for e, Initial residual = 0.00678374, Final residual = 2.83879e-14, No Iterations 1000
smoothSolver:  Solving for p, Initial residual = 0.00688401, Final residual = 1.27865e-14, No Iterations 1000
diagonal:  Solving for rho, Initial residual = 0, Final residual = 0, No Iterations 0
time step continuity errors : sum local = 1.80088e-16, global = -8.42847e-19, cumulative = -2.73249e-15
PIMPLE: iteration 2
smoothSolver:  Solving for Ux, Initial residual = 4.89863e-05, Final residual = 6.77923e-16, No Iterations 2
smoothSolver:  Solving for e, Initial residual = 0.000982483, Final residual = 2.8204e-14, No Iterations 1000
smoothSolver:  Solving for p, Initial residual = 0.000177208, Final residual = 1.23676e-14, No Iterations 1000
diagonal:  Solving for rho, Initial residual = 0, Final residual = 0, No Iterations 0
time step continuity errors : sum local = 1.86129e-16, global = -2.06497e-17, cumulative = -2.75314e-15
ExecutionTime = 5.72 s  ClockTime = 6 s

Time = 0.0004

Courant Number mean: 0.056473 max: 0.0579
diagonal:  Solving for rho, Initial residual = 0, Final residual = 0, No Iterations 0
PIMPLE: iteration 1
smoothSolver:  Solving for Ux, Initial residual = 0.00673161, Final residual = 6.89526e-16, No Iterations 2
smoothSolver:  Solving for e, Initial residual = 0.00660767, Final residual = 2.6436e-14, No Iterations 1000
smoothSolver:  Solving for p, Initial residual = 0.00670804, Final residual = 1.24524e-14, No Iterations 1000
diagonal:  Solving for rho, Initial residual = 0, Final residual = 0, No Iterations 0
time step continuity errors : sum local = 1.85697e-16, global = -1.76988e-17, cumulative = -2.77084e-15
PIMPLE: iteration 2
smoothSolver:  Solving for Ux, Initial residual = 4.72522e-05, Final residual = 6.90926e-16, No Iterations 2
smoothSolver:  Solving for e, Initial residual = 0.000943803, Final residual = 2.75168e-14, No Iterations 1000
smoothSolver:  Solving for p, Initial residual = 0.00017082, Final residual = 1.18193e-14, No Iterations 1000
diagonal:  Solving for rho, Initial residual = 0, Final residual = 0, No Iterations 0
time step continuity errors : sum local = 1.89208e-16, global = -5.75912e-18, cumulative = -2.7766e-15
ExecutionTime = 5.83 s  ClockTime = 6 s

Time = 0.00041

Courant Number mean: 0.0564365 max: 0.0579
diagonal:  Solving for rho, Initial residual = 0, Final residual = 0, No Iterations 0
PIMPLE: iteration 1
smoothSolver:  Solving for Ux, Initial residual = 0.00657068, Final residual = 6.67066e-16, No Iterations 2
smoothSolver:  Solving for e, Initial residual = 0.00645092, Final residual = 2.64434e-14, No Iterations 1000
smoothSolver:  Solving for p, Initial residual = 0.00653983, Final residual = 1.20621e-14, No Iterations 1000
diagonal:  Solving for rho, Initial residual = 0, Final residual = 0, No Iterations 0
time step continuity errors : sum local = 1.90461e-16, global = -2.38779e-17, cumulative = -2.80048e-15
PIMPLE: iteration 2
smoothSolver:  Solving for Ux, Initial residual = 4.5616e-05, Final residual = 6.58153e-16, No Iterations 2
smoothSolver:  Solving for e, Initial residual = 0.000906091, Final residual = 2.69547e-14, No Iterations 1000
smoothSolver:  Solving for p, Initial residual = 0.000164326, Final residual = 1.16934e-14, No Iterations 1000
diagonal:  Solving for rho, Initial residual = 0, Final residual = 0, No Iterations 0
time step continuity errors : sum local = 1.79225e-16, global = -1.99451e-17, cumulative = -2.82042e-15
ExecutionTime = 5.94 s  ClockTime = 6 s

Time = 0.00042

Courant Number mean: 0.0563999 max: 0.0579
diagonal:  Solving for rho, Initial residual = 0, Final residual = 0, No Iterations 0
PIMPLE: iteration 1
smoothSolver:  Solving for Ux, Initial residual = 0.00640775, Final residual = 6.47748e-16, No Iterations 2
smoothSolver:  Solving for e, Initial residual = 0.00629134, Final residual = 2.64197e-14, No Iterations 1000
smoothSolver:  Solving for p, Initial residual = 0.00637786, Final residual = 1.20057e-14, No Iterations 1000
diagonal:  Solving for rho, Initial residual = 0, Final residual = 0, No Iterations 0
time step continuity errors : sum local = 1.85956e-16, global = -2.16293e-17, cumulative = -2.84205e-15
PIMPLE: iteration 2
smoothSolver:  Solving for Ux, Initial residual = 4.4094e-05, Final residual = 6.3502e-16, No Iterations 2
smoothSolver:  Solving for e, Initial residual = 0.000879795, Final residual = 2.60635e-14, No Iterations 1000
smoothSolver:  Solving for p, Initial residual = 0.000158602, Final residual = 1.18222e-14, No Iterations 1000
diagonal:  Solving for rho, Initial residual = 0, Final residual = 0, No Iterations 0
time step continuity errors : sum local = 1.7486e-16, global = -1.58709e-17, cumulative = -2.85793e-15
ExecutionTime = 6.05 s  ClockTime = 6 s

Time = 0.00043

Courant Number mean: 0.0563634 max: 0.0579
diagonal:  Solving for rho, Initial residual = 0, Final residual = 0, No Iterations 0
PIMPLE: iteration 1
smoothSolver:  Solving for Ux, Initial residual = 0.00625869, Final residual = 6.27987e-16, No Iterations 2
smoothSolver:  Solving for e, Initial residual = 0.00614544, Final residual = 2.64261e-14, No Iterations 1000
smoothSolver:  Solving for p, Initial residual = 0.00622544, Final residual = 1.14406e-14, No Iterations 1000
diagonal:  Solving for rho, Initial residual = 0, Final residual = 0, No Iterations 0
time step continuity errors : sum local = 1.79625e-16, global = -9.12873e-18, cumulative = -2.86705e-15
PIMPLE: iteration 2
smoothSolver:  Solving for Ux, Initial residual = 4.26447e-05, Final residual = 6.40418e-16, No Iterations 2
smoothSolver:  Solving for e, Initial residual = 0.000853895, Final residual = 2.50061e-14, No Iterations 1000
smoothSolver:  Solving for p, Initial residual = 0.000154293, Final residual = 1.1637e-14, No Iterations 1000
diagonal:  Solving for rho, Initial residual = 0, Final residual = 0, No Iterations 0
time step continuity errors : sum local = 1.88895e-16, global = -2.09259e-17, cumulative = -2.88798e-15
ExecutionTime = 6.16 s  ClockTime = 7 s

Time = 0.00044

Courant Number mean: 0.0563267 max: 0.0579
diagonal:  Solving for rho, Initial residual = 0, Final residual = 0, No Iterations 0
PIMPLE: iteration 1
smoothSolver:  Solving for Ux, Initial residual = 0.00611199, Final residual = 6.29283e-16, No Iterations 2
smoothSolver:  Solving for e, Initial residual = 0.00599982, Final residual = 2.52406e-14, No Iterations 1000
smoothSolver:  Solving for p, Initial residual = 0.00608159, Final residual = 1.09668e-14, No Iterations 1000
diagonal:  Solving for rho, Initial residual = 0, Final residual = 0, No Iterations 0
time step continuity errors : sum local = 1.90007e-16, global = -1.44647e-17, cumulative = -2.90244e-15
PIMPLE: iteration 2
smoothSolver:  Solving for Ux, Initial residual = 4.12878e-05, Final residual = 5.81859e-16, No Iterations 2
smoothSolver:  Solving for e, Initial residual = 0.000819655, Final residual = 2.47711e-14, No Iterations 1000
smoothSolver:  Solving for p, Initial residual = 0.000148121, Final residual = 1.11089e-14, No Iterations 1000
diagonal:  Solving for rho, Initial residual = 0, Final residual = 0, No Iterations 0
time step continuity errors : sum local = 1.83688e-16, global = -2.5559e-17, cumulative = -2.928e-15
ExecutionTime = 6.27 s  ClockTime = 7 s

Time = 0.00045

Courant Number mean: 0.0562902 max: 0.0579
diagonal:  Solving for rho, Initial residual = 0, Final residual = 0, No Iterations 0
PIMPLE: iteration 1
smoothSolver:  Solving for Ux, Initial residual = 0.00597509, Final residual = 6.10579e-16, No Iterations 2
smoothSolver:  Solving for e, Initial residual = 0.0058692, Final residual = 2.46641e-14, No Iterations 1000
smoothSolver:  Solving for p, Initial residual = 0.00594652, Final residual = 1.09757e-14, No Iterations 1000
diagonal:  Solving for rho, Initial residual = 0, Final residual = 0, No Iterations 0
time step continuity errors : sum local = 1.79605e-16, global = -2.10639e-18, cumulative = -2.93011e-15
PIMPLE: iteration 2
smoothSolver:  Solving for Ux, Initial residual = 3.99933e-05, Final residual = 5.99269e-16, No Iterations 2
smoothSolver:  Solving for e, Initial residual = 0.000799625, Final residual = 2.43556e-14, No Iterations 1000
smoothSolver:  Solving for p, Initial residual = 0.000143992, Final residual = 1.05824e-14, No Iterations 1000
diagonal:  Solving for rho, Initial residual = 0, Final residual = 0, No Iterations 0
time step continuity errors : sum local = 1.93647e-16, global = -2.00809e-17, cumulative = -2.95019e-15
ExecutionTime = 6.38 s  ClockTime = 7 s

Time = 0.00046

Courant Number mean: 0.0562536 max: 0.0579
diagonal:  Solving for rho, Initial residual = 0, Final residual = 0, No Iterations 0
PIMPLE: iteration 1
smoothSolver:  Solving for Ux, Initial residual = 0.0058413, Final residual = 5.9051e-16, No Iterations 2
smoothSolver:  Solving for e, Initial residual = 0.00573921, Final residual = 2.38431e-14, No Iterations 1000
smoothSolver:  Solving for p, Initial residual = 0.00581442, Final residual = 1.04523e-14, No Iterations 1000
diagonal:  Solving for rho, Initial residual = 0, Final residual = 0, No Iterations 0
time step continuity errors : sum local = 1.80156e-16, global = -1.22163e-17, cumulative = -2.96241e-15
PIMPLE: iteration 2
smoothSolver:  Solving for Ux, Initial residual = 3.87742e-05, Final residual = 5.71804e-16, No Iterations 2
smoothSolver:  Solving for e, Initial residual = 0.000770416, Final residual = 2.37801e-14, No Iterations 1000
smoothSolver:  Solving for p, Initial residual = 0.000139094, Final residual = 1.03747e-14, No Iterations 1000
diagonal:  Solving for rho, Initial residual = 0, Final residual = 0, No Iterations 0
time step continuity errors : sum local = 1.78752e-16, global = -8.00381e-18, cumulative = -2.97041e-15
ExecutionTime = 6.49 s  ClockTime = 7 s

Time = 0.00047

Courant Number mean: 0.0562171 max: 0.0579
diagonal:  Solving for rho, Initial residual = 0, Final residual = 0, No Iterations 0
PIMPLE: iteration 1
smoothSolver:  Solving for Ux, Initial residual = 0.00571619, Final residual = 6.09312e-16, No Iterations 2
smoothSolver:  Solving for e, Initial residual = 0.00561972, Final residual = 2.38292e-14, No Iterations 1000
smoothSolver:  Solving for p, Initial residual = 0.00569079, Final residual = 1.04783e-14, No Iterations 1000
diagonal:  Solving for rho, Initial residual = 0, Final residual = 0, No Iterations 0
time step continuity errors : sum local = 1.82673e-16, global = -1.86745e-17, cumulative = -2.98909e-15
PIMPLE: iteration 2
smoothSolver:  Solving for Ux, Initial residual = 3.76156e-05, Final residual = 5.73751e-16, No Iterations 2
smoothSolver:  Solving for e, Initial residual = 0.000746569, Final residual = 2.27981e-14, No Iterations 1000
smoothSolver:  Solving for p, Initial residual = 0.000133985, Final residual = 1.02902e-14, No Iterations 1000
diagonal:  Solving for rho, Initial residual = 0, Final residual = 0, No Iterations 0
time step continuity errors : sum local = 1.8506e-16, global = -1.57259e-17, cumulative = -3.00481e-15
ExecutionTime = 6.6 s  ClockTime = 7 s

Time = 0.00048

Courant Number mean: 0.0561805 max: 0.0579
diagonal:  Solving for rho, Initial residual = 0, Final residual = 0, No Iterations 0
PIMPLE: iteration 1
smoothSolver:  Solving for Ux, Initial residual = 0.0055951, Final residual = 5.82749e-16, No Iterations 2
smoothSolver:  Solving for e, Initial residual = 0.00550055, Final residual = 2.32012e-14, No Iterations 1000
smoothSolver:  Solving for p, Initial residual = 0.00556808, Final residual = 1.03549e-14, No Iterations 1000
diagonal:  Solving for rho, Initial residual = 0, Final residual = 0, No Iterations 0
time step continuity errors : sum local = 1.82662e-16, global = -1.86734e-17, cumulative = -3.02348e-15
PIMPLE: iteration 2
smoothSolver:  Solving for Ux, Initial residual = 3.6522e-05, Final residual = 5.6518e-16, No Iterations 2
smoothSolver:  Solving for e, Initial residual = 0.000728263, Final residual = 2.33189e-14, No Iterations 1000
smoothSolver:  Solving for p, Initial residual = 0.00013104, Final residual = 1.03776e-14, No Iterations 1000
diagonal:  Solving for rho, Initial residual = 0, Final residual = 0, No Iterations 0
time step continuity errors : sum local = 1.76485e-16, global = -6.59887e-18, cumulative = -3.03008e-15
ExecutionTime = 6.71 s  ClockTime = 7 s

Time = 0.00049

Courant Number mean: 0.0561441 max: 0.0579
diagonal:  Solving for rho, Initial residual = 0, Final residual = 0, No Iterations 0
PIMPLE: iteration 1
smoothSolver:  Solving for Ux, Initial residual = 0.00548103, Final residual = 5.61007e-16, No Iterations 2
smoothSolver:  Solving for e, Initial residual = 0.00538924, Final residual = 2.41214e-14, No Iterations 1000
smoothSolver:  Solving for p, Initial residual = 0.00545581, Final residual = 1.00162e-14, No Iterations 1000
diagonal:  Solving for rho, Initial residual = 0, Final residual = 0, No Iterations 0
time step continuity errors : sum local = 1.81107e-16, global = -1.57241e-17, cumulative = -3.04581e-15
PIMPLE: iteration 2
smoothSolver:  Solving for Ux, Initial residual = 3.54769e-05, Final residual = 5.38796e-16, No Iterations 2
smoothSolver:  Solving for e, Initial residual = 0.000703659, Final residual = 2.2541e-14, No Iterations 1000
smoothSolver:  Solving for p, Initial residual = 0.000126881, Final residual = 1.03413e-14, No Iterations 1000
diagonal:  Solving for rho, Initial residual = 0, Final residual = 0, No Iterations 0
time step continuity errors : sum local = 1.79704e-16, global = -1.1793e-17, cumulative = -3.0576e-15
ExecutionTime = 6.82 s  ClockTime = 7 s

Time = 0.0005

Courant Number mean: 0.0561075 max: 0.0579
diagonal:  Solving for rho, Initial residual = 0, Final residual = 0, No Iterations 0
PIMPLE: iteration 1
smoothSolver:  Solving for Ux, Initial residual = 0.00537065, Final residual = 5.52046e-16, No Iterations 2
smoothSolver:  Solving for e, Initial residual = 0.00528073, Final residual = 2.22632e-14, No Iterations 1000
smoothSolver:  Solving for p, Initial residual = 0.00534355, Final residual = 1.01651e-14, No Iterations 1000
diagonal:  Solving for rho, Initial residual = 0, Final residual = 0, No Iterations 0
time step continuity errors : sum local = 1.81097e-16, global = -9.26543e-18, cumulative = -3.06687e-15
PIMPLE: iteration 2
smoothSolver:  Solving for Ux, Initial residual = 3.44898e-05, Final residual = 5.37305e-16, No Iterations 2
smoothSolver:  Solving for e, Initial residual = 0.000685819, Final residual = 2.20089e-14, No Iterations 1000
smoothSolver:  Solving for p, Initial residual = 0.000122997, Final residual = 1.00875e-14, No Iterations 1000
diagonal:  Solving for rho, Initial residual = 0, Final residual = 0, No Iterations 0
time step continuity errors : sum local = 1.85309e-16, global = -1.57231e-17, cumulative = -3.08259e-15
ExecutionTime = 6.93 s  ClockTime = 7 s

Time = 0.00051

Courant Number mean: 0.056071 max: 0.0579
diagonal:  Solving for rho, Initial residual = 0, Final residual = 0, No Iterations 0
PIMPLE: iteration 1
smoothSolver:  Solving for Ux, Initial residual = 0.00526533, Final residual = 5.41761e-16, No Iterations 2
smoothSolver:  Solving for e, Initial residual = 0.00517848, Final residual = 2.17513e-14, No Iterations 1000
smoothSolver:  Solving for p, Initial residual = 0.00524124, Final residual = 9.93749e-15, No Iterations 1000
diagonal:  Solving for rho, Initial residual = 0, Final residual = 0, No Iterations 0
time step continuity errors : sum local = 1.81508e-16, global = -8.0015e-18, cumulative = -3.09059e-15
PIMPLE: iteration 2
smoothSolver:  Solving for Ux, Initial residual = 3.35431e-05, Final residual = 5.1111e-16, No Iterations 2
smoothSolver:  Solving for e, Initial residual = 0.000667842, Final residual = 2.07072e-14, No Iterations 1000
smoothSolver:  Solving for p, Initial residual = 0.000120064, Final residual = 9.47806e-15, No Iterations 1000
diagonal:  Solving for rho, Initial residual = 0, Final residual = 0, No Iterations 0
time step continuity errors : sum local = 1.91053e-16, global = -9.68602e-18, cumulative = -3.10028e-15
ExecutionTime = 7.04 s  ClockTime = 8 s

Time = 0.00052

Courant Number mean: 0.0560344 max: 0.0579
diagonal:  Solving for rho, Initial residual = 0, Final residual = 0, No Iterations 0
PIMPLE: iteration 1
smoothSolver:  Solving for Ux, Initial residual = 0.00516315, Final residual = 5.11511e-16, No Iterations 2
smoothSolver:  Solving for e, Initial residual = 0.00507918, Final residual = 2.19231e-14, No Iterations 1000
smoothSolver:  Solving for p, Initial residual = 0.00513929, Final residual = 9.84549e-15, No Iterations 1000
diagonal:  Solving for rho, Initial residual = 0, Final residual = 0, No Iterations 0
time step continuity errors : sum local = 1.79953e-16, global = -1.96517e-17, cumulative = -3.11993e-15
PIMPLE: iteration 2
smoothSolver:  Solving for Ux, Initial residual = 3.26457e-05, Final residual = 5.36082e-16, No Iterations 2
smoothSolver:  Solving for e, Initial residual = 0.000643961, Final residual = 2.20229e-14, No Iterations 1000
smoothSolver:  Solving for p, Initial residual = 0.000115988, Final residual = 9.55494e-15, No Iterations 1000
diagonal:  Solving for rho, Initial residual = 0, Final residual = 0, No Iterations 0
time step continuity errors : sum local = 1.81638e-16, global = -5.61476e-18, cumulative = -3.12554e-15
ExecutionTime = 7.15 s  ClockTime = 8 s

Time = 0.00053

Courant Number mean: 0.0559979 max: 0.0579
diagonal:  Solving for rho, Initial residual = 0, Final residual = 0, No Iterations 0
PIMPLE: iteration 1
smoothSolver:  Solving for Ux, Initial residual = 0.00506539, Final residual = 5.19851e-16, No Iterations 2
smoothSolver:  Solving for e, Initial residual = 0.00498529, Final residual = 2.23814e-14, No Iterations 1000
smoothSolver:  Solving for p, Initial residual = 0.0050435, Final residual = 8.8746e-15, No Iterations 1000
diagonal:  Solving for rho, Initial residual = 0, Final residual = 0, No Iterations 0
time step continuity errors : sum local = 1.79522e-16, global = -1.10885e-17, cumulative = -3.13663e-15
PIMPLE: iteration 2
smoothSolver:  Solving for Ux, Initial residual = 3.17886e-05, Final residual = 4.81984e-16, No Iterations 2
smoothSolver:  Solving for e, Initial residual = 0.000632271, Final residual = 2.06459e-14, No Iterations 1000
smoothSolver:  Solving for p, Initial residual = 0.000113325, Final residual = 9.26615e-15, No Iterations 1000
diagonal:  Solving for rho, Initial residual = 0, Final residual = 0, No Iterations 0
time step continuity errors : sum local = 1.8261e-16, global = -1.08078e-17, cumulative = -3.14744e-15
ExecutionTime = 7.26 s  ClockTime = 8 s

Time = 0.00054

Courant Number mean: 0.0559614 max: 0.0579
diagonal:  Solving for rho, Initial residual = 0, Final residual = 0, No Iterations 0
PIMPLE: iteration 1
smoothSolver:  Solving for Ux, Initial residual = 0.0049716, Final residual = 5.08111e-16, No Iterations 2
smoothSolver:  Solving for e, Initial residual = 0.00489351, Final residual = 2.11548e-14, No Iterations 1000
smoothSolver:  Solving for p, Initial residual = 0.00494928, Final residual = 9.23743e-15, No Iterations 1000
diagonal:  Solving for rho, Initial residual = 0, Final residual = 0, No Iterations 0
time step continuity errors : sum local = 1.83301e-16, global = -7.29835e-18, cumulative = -3.15474e-15
PIMPLE: iteration 2
smoothSolver:  Solving for Ux, Initial residual = 3.09705e-05, Final residual = 5.00437e-16, No Iterations 2
smoothSolver:  Solving for e, Initial residual = 0.000614973, Final residual = 2.04651e-14, No Iterations 1000
smoothSolver:  Solving for p, Initial residual = 0.000110471, Final residual = 9.09089e-15, No Iterations 1000
diagonal:  Solving for rho, Initial residual = 0, Final residual = 0, No Iterations 0
time step continuity errors : sum local = 1.83582e-16, global = 8.42117e-19, cumulative = -3.1539e-15
ExecutionTime = 7.37 s  ClockTime = 8 s

Time = 0.00055

Courant Number mean: 0.0559249 max: 0.0579
diagonal:  Solving for rho, Initial residual = 0, Final residual = 0, No Iterations 0
PIMPLE: iteration 1
smoothSolver:  Solving for Ux, Initial residual = 0.00488138, Final residual = 5.00367e-16, No Iterations 2
smoothSolver:  Solving for e, Initial residual = 0.00480567, Final residual = 2.02772e-14, No Iterations 1000
smoothSolver:  Solving for p, Initial residual = 0.00486008, Final residual = 8.89398e-15, No Iterations 1000
diagonal:  Solving for rho, Initial residual = 0, Final residual = 0, No Iterations 0
time step continuity errors : sum local = 1.85676e-16, global = -2.59638e-17, cumulative = -3.17986e-15
PIMPLE: iteration 2
smoothSolver:  Solving for Ux, Initial residual = 3.01877e-05, Final residual = 4.82918e-16, No Iterations 2
smoothSolver:  Solving for e, Initial residual = 0.000597846, Final residual = 2.01969e-14, No Iterations 1000
smoothSolver:  Solving for p, Initial residual = 0.000106828, Final residual = 8.93479e-15, No Iterations 1000
diagonal:  Solving for rho, Initial residual = 0, Final residual = 0, No Iterations 0
time step continuity errors : sum local = 1.80904e-16, global = -2.035e-17, cumulative = -3.20021e-15
ExecutionTime = 7.49 s  ClockTime = 8 s

Time = 0.00056

Courant Number mean: 0.0558884 max: 0.0579
diagonal:  Solving for rho, Initial residual = 0, Final residual = 0, No Iterations 0
PIMPLE: iteration 1
smoothSolver:  Solving for Ux, Initial residual = 0.00479484, Final residual = 4.84872e-16, No Iterations 2
smoothSolver:  Solving for e, Initial residual = 0.00472073, Final residual = 2.07903e-14, No Iterations 1000
smoothSolver:  Solving for p, Initial residual = 0.00477311, Final residual = 8.49147e-15, No Iterations 1000
diagonal:  Solving for rho, Initial residual = 0, Final residual = 0, No Iterations 0
time step continuity errors : sum local = 1.77105e-16, global = -1.31916e-17, cumulative = -3.2134e-15
PIMPLE: iteration 2
smoothSolver:  Solving for Ux, Initial residual = 2.9442e-05, Final residual = 4.76619e-16, No Iterations 2
smoothSolver:  Solving for e, Initial residual = 0.000585544, Final residual = 2.00735e-14, No Iterations 1000
smoothSolver:  Solving for p, Initial residual = 0.000104884, Final residual = 8.72536e-15, No Iterations 1000
diagonal:  Solving for rho, Initial residual = 0, Final residual = 0, No Iterations 0
time step continuity errors : sum local = 1.8328e-16, global = -6.45549e-18, cumulative = -3.21986e-15
ExecutionTime = 7.6 s  ClockTime = 8 s

Time = 0.00057

Courant Number mean: 0.0558519 max: 0.0579
diagonal:  Solving for rho, Initial residual = 0, Final residual = 0, No Iterations 0
PIMPLE: iteration 1
smoothSolver:  Solving for Ux, Initial residual = 0.00471095, Final residual = 4.77883e-16, No Iterations 2
smoothSolver:  Solving for e, Initial residual = 0.00463917, Final residual = 1.97678e-14, No Iterations 1000
smoothSolver:  Solving for p, Initial residual = 0.00469039, Final residual = 8.95856e-15, No Iterations 1000
diagonal:  Solving for rho, Initial residual = 0, Final residual = 0, No Iterations 0
time step continuity errors : sum local = 1.82848e-16, global = -9.12136e-18, cumulative = -3.22898e-15
PIMPLE: iteration 2
smoothSolver:  Solving for Ux, Initial residual = 2.87244e-05, Final residual = 4.84101e-16, No Iterations 2
smoothSolver:  Solving for e, Initial residual = 0.000568804, Final residual = 1.87455e-14, No Iterations 1000
smoothSolver:  Solving for p, Initial residual = 0.000102096, Final residual = 8.6569e-15, No Iterations 1000
diagonal:  Solving for rho, Initial residual = 0, Final residual = 0, No Iterations 0
time step continuity errors : sum local = 1.9225e-16, global = -1.82427e-17, cumulative = -3.24722e-15
ExecutionTime = 7.71 s  ClockTime = 8 s

Time = 0.00058

Courant Number mean: 0.0558153 max: 0.0579
diagonal:  Solving for rho, Initial residual = 0, Final residual = 0, No Iterations 0
PIMPLE: iteration 1
smoothSolver:  Solving for Ux, Initial residual = 0.00463024, Final residual = 4.67004e-16, No Iterations 2
smoothSolver:  Solving for e, Initial residual = 0.00456063, Final residual = 1.92419e-14, No Iterations 1000
smoothSolver:  Solving for p, Initial residual = 0.00461063, Final residual = 8.77767e-15, No Iterations 1000
diagonal:  Solving for rho, Initial residual = 0, Final residual = 0, No Iterations 0
time step continuity errors : sum local = 1.81013e-16, global = -8.13859e-18, cumulative = -3.25536e-15
PIMPLE: iteration 2
smoothSolver:  Solving for Ux, Initial residual = 2.80397e-05, Final residual = 4.65669e-16, No Iterations 2
smoothSolver:  Solving for e, Initial residual = 0.000556009, Final residual = 1.89969e-14, No Iterations 1000
smoothSolver:  Solving for p, Initial residual = 9.93123e-05, Final residual = 8.66379e-15, No Iterations 1000
diagonal:  Solving for rho, Initial residual = 0, Final residual = 0, No Iterations 0
time step continuity errors : sum local = 1.77646e-16, global = -1.68385e-17, cumulative = -3.2722e-15
ExecutionTime = 7.82 s  ClockTime = 8 s

Time = 0.00059

Courant Number mean: 0.0557788 max: 0.0579
diagonal:  Solving for rho, Initial residual = 0, Final residual = 0, No Iterations 0
PIMPLE: iteration 1
smoothSolver:  Solving for Ux, Initial residual = 0.0045518, Final residual = 4.55052e-16, No Iterations 2
smoothSolver:  Solving for e, Initial residual = 0.00448516, Final residual = 1.88539e-14, No Iterations 1000
smoothSolver:  Solving for p, Initial residual = 0.00453339, Final residual = 8.53977e-15, No Iterations 1000
diagonal:  Solving for rho, Initial residual = 0, Final residual = 0, No Iterations 0
time step continuity errors : sum local = 1.79179e-16, global = -2.51159e-17, cumulative = -3.29731e-15
PIMPLE: iteration 2
smoothSolver:  Solving for Ux, Initial residual = 2.73831e-05, Final residual = 4.67005e-16, No Iterations 2
smoothSolver:  Solving for e, Initial residual = 0.000544072, Final residual = 1.83393e-14, No Iterations 1000
smoothSolver:  Solving for p, Initial residual = 9.73968e-05, Final residual = 8.41663e-15, No Iterations 1000
diagonal:  Solving for rho, Initial residual = 0, Final residual = 0, No Iterations 0
time step continuity errors : sum local = 1.82546e-16, global = -1.22072e-17, cumulative = -3.30952e-15
ExecutionTime = 7.93 s  ClockTime = 8 s

Time = 0.0006

Courant Number mean: 0.0557423 max: 0.0579
diagonal:  Solving for rho, Initial residual = 0, Final residual = 0, No Iterations 0
PIMPLE: iteration 1
smoothSolver:  Solving for Ux, Initial residual = 0.00447689, Final residual = 4.62311e-16, No Iterations 2
smoothSolver:  Solving for e, Initial residual = 0.00441201, Final residual = 1.86581e-14, No Iterations 1000
smoothSolver:  Solving for p, Initial residual = 0.00445809, Final residual = 8.39679e-15, No Iterations 1000
diagonal:  Solving for rho, Initial residual = 0, Final residual = 0, No Iterations 0
time step continuity errors : sum local = 1.85342e-16, global = -1.38901e-17, cumulative = -3.32341e-15
PIMPLE: iteration 2
smoothSolver:  Solving for Ux, Initial residual = 2.67521e-05, Final residual = 4.40384e-16, No Iterations 2
smoothSolver:  Solving for e, Initial residual = 0.000527824, Final residual = 1.79434e-14, No Iterations 1000
smoothSolver:  Solving for p, Initial residual = 9.46709e-05, Final residual = 8.12593e-15, No Iterations 1000
diagonal:  Solving for rho, Initial residual = 0, Final residual = 0, No Iterations 0
time step continuity errors : sum local = 1.83097e-16, global = -1.05228e-17, cumulative = -3.33393e-15
ExecutionTime = 8.04 s  ClockTime = 9 s

Time = 0.00061

Courant Number mean: 0.0557058 max: 0.0579
diagonal:  Solving for rho, Initial residual = 0, Final residual = 0, No Iterations 0
PIMPLE: iteration 1
smoothSolver:  Solving for Ux, Initial residual = 0.004404, Final residual = 4.50769e-16, No Iterations 2
smoothSolver:  Solving for e, Initial residual = 0.00434087, Final residual = 1.87517e-14, No Iterations 1000
smoothSolver:  Solving for p, Initial residual = 0.00438616, Final residual = 8.0783e-15, No Iterations 1000
diagonal:  Solving for rho, Initial residual = 0, Final residual = 0, No Iterations 0
time step continuity errors : sum local = 1.9403e-16, global = -1.38893e-17, cumulative = -3.34782e-15
PIMPLE: iteration 2
smoothSolver:  Solving for Ux, Initial residual = 2.61482e-05, Final residual = 4.43303e-16, No Iterations 2
smoothSolver:  Solving for e, Initial residual = 0.000519501, Final residual = 1.84845e-14, No Iterations 1000
smoothSolver:  Solving for p, Initial residual = 9.27441e-05, Final residual = 7.96949e-15, No Iterations 1000
diagonal:  Solving for rho, Initial residual = 0, Final residual = 0, No Iterations 0
time step continuity errors : sum local = 1.90382e-16, global = -1.38893e-17, cumulative = -3.36171e-15
ExecutionTime = 8.15 s  ClockTime = 9 s

Time = 0.00062

Courant Number mean: 0.0556693 max: 0.0579
diagonal:  Solving for rho, Initial residual = 0, Final residual = 0, No Iterations 0
PIMPLE: iteration 1
smoothSolver:  Solving for Ux, Initial residual = 0.00433408, Final residual = 4.45906e-16, No Iterations 2
smoothSolver:  Solving for e, Initial residual = 0.00427274, Final residual = 1.81979e-14, No Iterations 1000
smoothSolver:  Solving for p, Initial residual = 0.00431585, Final residual = 7.8364e-15, No Iterations 1000
diagonal:  Solving for rho, Initial residual = 0, Final residual = 0, No Iterations 0
time step continuity errors : sum local = 1.74238e-16, global = -3.64749e-18, cumulative = -3.36536e-15
PIMPLE: iteration 2
smoothSolver:  Solving for Ux, Initial residual = 2.55667e-05, Final residual = 4.3573e-16, No Iterations 2
smoothSolver:  Solving for e, Initial residual = 0.000507179, Final residual = 1.80444e-14, No Iterations 1000
smoothSolver:  Solving for p, Initial residual = 9.07394e-05, Final residual = 7.70347e-15, No Iterations 1000
diagonal:  Solving for rho, Initial residual = 0, Final residual = 0, No Iterations 0
time step continuity errors : sum local = 1.81813e-16, global = -1.48705e-17, cumulative = -3.38023e-15
ExecutionTime = 8.25 s  ClockTime = 9 s

[...]
smoothSolver:  Solving for p, Initial residual = 0.00260621, Final residual = 4.84931e-15, No Iterations 1000
diagonal:  Solving for rho, Initial residual = 0, Final residual = 0, No Iterations 0
time step continuity errors : sum local = 1.92263e-16, global = 2.46325e-18, cumulative = -1.11951e-14
PIMPLE: iteration 2
smoothSolver:  Solving for Ux, Initial residual = 6.42597e-06, Final residual = 1.46451e-17, No Iterations 2
smoothSolver:  Solving for e, Initial residual = 0.000132015, Final residual = 1.29049e-14, No Iterations 1000
smoothSolver:  Solving for p, Initial residual = 2.2685e-05, Final residual = 4.71951e-15, No Iterations 1000
diagonal:  Solving for rho, Initial residual = 0, Final residual = 0, No Iterations 0
time step continuity errors : sum local = 1.93689e-16, global = -1.86688e-17, cumulative = -1.12138e-14
ExecutionTime = 164.79 s  ClockTime = 169 s

Time = 0.01486

Courant Number mean: 0.00378839 max: 0.0578999
diagonal:  Solving for rho, Initial residual = 0, Final residual = 0, No Iterations 0
PIMPLE: iteration 1
smoothSolver:  Solving for Ux, Initial residual = 0.0026282, Final residual = 1.3703e-17, No Iterations 2
smoothSolver:  Solving for e, Initial residual = 0.00262087, Final residual = 1.25616e-14, No Iterations 1000
smoothSolver:  Solving for p, Initial residual = 0.0026296, Final residual = 5.01415e-15, No Iterations 1000
diagonal:  Solving for rho, Initial residual = 0, Final residual = 0, No Iterations 0
time step continuity errors : sum local = 1.98216e-16, global = 1.49083e-17, cumulative = -1.11989e-14
PIMPLE: iteration 2
smoothSolver:  Solving for Ux, Initial residual = 6.48352e-06, Final residual = 1.5857e-17, No Iterations 2
smoothSolver:  Solving for e, Initial residual = 0.000133161, Final residual = 1.31184e-14, No Iterations 1000
smoothSolver:  Solving for p, Initial residual = 2.28586e-05, Final residual = 4.87339e-15, No Iterations 1000
diagonal:  Solving for rho, Initial residual = 0, Final residual = 0, No Iterations 0
time step continuity errors : sum local = 1.8979e-16, global = -1.55565e-17, cumulative = -1.12145e-14
ExecutionTime = 164.91 s  ClockTime = 169 s

Time = 0.01487

Courant Number mean: 0.00375197 max: 0.0578998
diagonal:  Solving for rho, Initial residual = 0, Final residual = 0, No Iterations 0
PIMPLE: iteration 1
smoothSolver:  Solving for Ux, Initial residual = 0.00265202, Final residual = 1.77742e-17, No Iterations 2
smoothSolver:  Solving for e, Initial residual = 0.00264462, Final residual = 1.27951e-14, No Iterations 1000
smoothSolver:  Solving for p, Initial residual = 0.00265346, Final residual = 5.01424e-15, No Iterations 1000
diagonal:  Solving for rho, Initial residual = 0, Final residual = 0, No Iterations 0
time step continuity errors : sum local = 1.95354e-16, global = 2.50187e-17, cumulative = -1.11894e-14
PIMPLE: iteration 2
smoothSolver:  Solving for Ux, Initial residual = 6.54243e-06, Final residual = 1.37475e-17, No Iterations 2
smoothSolver:  Solving for e, Initial residual = 0.000134476, Final residual = 1.30642e-14, No Iterations 1000
smoothSolver:  Solving for p, Initial residual = 2.30985e-05, Final residual = 5.06479e-15, No Iterations 1000
diagonal:  Solving for rho, Initial residual = 0, Final residual = 0, No Iterations 0
time step continuity errors : sum local = 1.97298e-16, global = -1.0889e-17, cumulative = -1.12003e-14
ExecutionTime = 165.02 s  ClockTime = 170 s

Time = 0.01488

Courant Number mean: 0.00371554 max: 0.0578998
diagonal:  Solving for rho, Initial residual = 0, Final residual = 0, No Iterations 0
PIMPLE: iteration 1
smoothSolver:  Solving for Ux, Initial residual = 0.0026763, Final residual = 1.48119e-17, No Iterations 2
smoothSolver:  Solving for e, Initial residual = 0.00266882, Final residual = 1.307e-14, No Iterations 1000
smoothSolver:  Solving for p, Initial residual = 0.00267775, Final residual = 5.10321e-15, No Iterations 1000
diagonal:  Solving for rho, Initial residual = 0, Final residual = 0, No Iterations 0
time step continuity errors : sum local = 1.91195e-16, global = 1.90547e-17, cumulative = -1.11813e-14
PIMPLE: iteration 2
smoothSolver:  Solving for Ux, Initial residual = 6.60224e-06, Final residual = 1.53126e-17, No Iterations 2
smoothSolver:  Solving for e, Initial residual = 0.000135578, Final residual = 1.26873e-14, No Iterations 1000
smoothSolver:  Solving for p, Initial residual = 2.33022e-05, Final residual = 5.10592e-15, No Iterations 1000
diagonal:  Solving for rho, Initial residual = 0, Final residual = 0, No Iterations 0
time step continuity errors : sum local = 1.91455e-16, global = -2.29434e-17, cumulative = -1.12042e-14
ExecutionTime = 165.13 s  ClockTime = 170 s

Time = 0.01489

Courant Number mean: 0.00367912 max: 0.0578998
diagonal:  Solving for rho, Initial residual = 0, Final residual = 0, No Iterations 0
PIMPLE: iteration 1
smoothSolver:  Solving for Ux, Initial residual = 0.00270101, Final residual = 1.59928e-17, No Iterations 2
smoothSolver:  Solving for e, Initial residual = 0.0026935, Final residual = 1.28996e-14, No Iterations 1000
smoothSolver:  Solving for p, Initial residual = 0.00270258, Final residual = 5.0664e-15, No Iterations 1000
diagonal:  Solving for rho, Initial residual = 0, Final residual = 0, No Iterations 0
time step continuity errors : sum local = 1.97147e-16, global = 1.30913e-17, cumulative = -1.11911e-14
PIMPLE: iteration 2
smoothSolver:  Solving for Ux, Initial residual = 6.66343e-06, Final residual = 1.41318e-17, No Iterations 2
smoothSolver:  Solving for e, Initial residual = 0.000136919, Final residual = 1.32564e-14, No Iterations 1000
smoothSolver:  Solving for p, Initial residual = 2.35088e-05, Final residual = 4.88414e-15, No Iterations 1000
diagonal:  Solving for rho, Initial residual = 0, Final residual = 0, No Iterations 0
time step continuity errors : sum local = 1.86778e-16, global = -8.94357e-18, cumulative = -1.12001e-14
ExecutionTime = 165.23 s  ClockTime = 170 s

Time = 0.0149

Courant Number mean: 0.0036427 max: 0.0578998
diagonal:  Solving for rho, Initial residual = 0, Final residual = 0, No Iterations 0
PIMPLE: iteration 1
smoothSolver:  Solving for Ux, Initial residual = 0.0027263, Final residual = 1.28847e-17, No Iterations 2
smoothSolver:  Solving for e, Initial residual = 0.0027187, Final residual = 1.32627e-14, No Iterations 1000
smoothSolver:  Solving for p, Initial residual = 0.00272785, Final residual = 5.07138e-15, No Iterations 1000
diagonal:  Solving for rho, Initial residual = 0, Final residual = 0, No Iterations 0
time step continuity errors : sum local = 1.97007e-16, global = 1.27018e-17, cumulative = -1.11874e-14
PIMPLE: iteration 2
smoothSolver:  Solving for Ux, Initial residual = 6.72576e-06, Final residual = 1.49025e-17, No Iterations 2
smoothSolver:  Solving for e, Initial residual = 0.000138235, Final residual = 1.33518e-14, No Iterations 1000
smoothSolver:  Solving for p, Initial residual = 2.37492e-05, Final residual = 4.9287e-15, No Iterations 1000
diagonal:  Solving for rho, Initial residual = 0, Final residual = 0, No Iterations 0
time step continuity errors : sum local = 2.02969e-16, global = -2.04784e-17, cumulative = -1.12078e-14
ExecutionTime = 165.34 s  ClockTime = 170 s

Time = 0.01491

Courant Number mean: 0.00360627 max: 0.0578998
diagonal:  Solving for rho, Initial residual = 0, Final residual = 0, No Iterations 0
PIMPLE: iteration 1
smoothSolver:  Solving for Ux, Initial residual = 0.00275202, Final residual = 1.40074e-17, No Iterations 2
smoothSolver:  Solving for e, Initial residual = 0.00274435, Final residual = 1.37268e-14, No Iterations 1000
smoothSolver:  Solving for p, Initial residual = 0.00275366, Final residual = 5.17788e-15, No Iterations 1000
diagonal:  Solving for rho, Initial residual = 0, Final residual = 0, No Iterations 0
time step continuity errors : sum local = 1.97774e-16, global = 8.55381e-18, cumulative = -1.11993e-14
PIMPLE: iteration 2
smoothSolver:  Solving for Ux, Initial residual = 6.78937e-06, Final residual = 1.31271e-17, No Iterations 2
smoothSolver:  Solving for e, Initial residual = 0.000139345, Final residual = 1.31224e-14, No Iterations 1000
smoothSolver:  Solving for p, Initial residual = 2.39539e-05, Final residual = 4.97146e-15, No Iterations 1000
diagonal:  Solving for rho, Initial residual = 0, Final residual = 0, No Iterations 0
time step continuity errors : sum local = 1.90257e-16, global = -2.07365e-17, cumulative = -1.122e-14
ExecutionTime = 165.45 s  ClockTime = 170 s

Time = 0.01492

Courant Number mean: 0.00356985 max: 0.0578997
diagonal:  Solving for rho, Initial residual = 0, Final residual = 0, No Iterations 0
PIMPLE: iteration 1
smoothSolver:  Solving for Ux, Initial residual = 0.00277834, Final residual = 1.23875e-17, No Iterations 2
smoothSolver:  Solving for e, Initial residual = 0.00277062, Final residual = 1.33062e-14, No Iterations 1000
smoothSolver:  Solving for p, Initial residual = 0.00278002, Final residual = 5.33556e-15, No Iterations 1000
diagonal:  Solving for rho, Initial residual = 0, Final residual = 0, No Iterations 0
time step continuity errors : sum local = 2.02689e-16, global = 5.44304e-18, cumulative = -1.12146e-14
PIMPLE: iteration 2
smoothSolver:  Solving for Ux, Initial residual = 6.85436e-06, Final residual = 1.4327e-17, No Iterations 2
smoothSolver:  Solving for e, Initial residual = 0.000140886, Final residual = 1.31781e-14, No Iterations 1000
smoothSolver:  Solving for p, Initial residual = 2.41946e-05, Final residual = 5.51011e-15, No Iterations 1000
diagonal:  Solving for rho, Initial residual = 0, Final residual = 0, No Iterations 0
time step continuity errors : sum local = 2.03596e-16, global = -3.04551e-17, cumulative = -1.1245e-14
ExecutionTime = 165.56 s  ClockTime = 170 s

Time = 0.01493

Courant Number mean: 0.00353343 max: 0.0578997
diagonal:  Solving for rho, Initial residual = 0, Final residual = 0, No Iterations 0
PIMPLE: iteration 1
smoothSolver:  Solving for Ux, Initial residual = 0.00280515, Final residual = 1.40284e-17, No Iterations 2
smoothSolver:  Solving for e, Initial residual = 0.00279735, Final residual = 1.34916e-14, No Iterations 1000
smoothSolver:  Solving for p, Initial residual = 0.00280686, Final residual = 5.34928e-15, No Iterations 1000
diagonal:  Solving for rho, Initial residual = 0, Final residual = 0, No Iterations 0
time step continuity errors : sum local = 1.91144e-16, global = 1.25702e-17, cumulative = -1.12325e-14
PIMPLE: iteration 2
smoothSolver:  Solving for Ux, Initial residual = 6.92054e-06, Final residual = 1.4944e-17, No Iterations 2
smoothSolver:  Solving for e, Initial residual = 0.000142209, Final residual = 1.36025e-14, No Iterations 1000
smoothSolver:  Solving for p, Initial residual = 2.44372e-05, Final residual = 5.49055e-15, No Iterations 1000
diagonal:  Solving for rho, Initial residual = 0, Final residual = 0, No Iterations 0
time step continuity errors : sum local = 2.0501e-16, global = -3.34341e-17, cumulative = -1.12659e-14
ExecutionTime = 165.67 s  ClockTime = 170 s

Time = 0.01494

Courant Number mean: 0.00349701 max: 0.0578996
diagonal:  Solving for rho, Initial residual = 0, Final residual = 0, No Iterations 0
PIMPLE: iteration 1
smoothSolver:  Solving for Ux, Initial residual = 0.00283251, Final residual = 1.41867e-17, No Iterations 2
smoothSolver:  Solving for e, Initial residual = 0.00282469, Final residual = 1.39424e-14, No Iterations 1000
smoothSolver:  Solving for p, Initial residual = 0.00283436, Final residual = 5.28993e-15, No Iterations 1000
diagonal:  Solving for rho, Initial residual = 0, Final residual = 0, No Iterations 0
time step continuity errors : sum local = 1.91912e-16, global = 1.29582e-19, cumulative = -1.12658e-14
PIMPLE: iteration 2
smoothSolver:  Solving for Ux, Initial residual = 6.98836e-06, Final residual = 1.32974e-17, No Iterations 2
smoothSolver:  Solving for e, Initial residual = 0.000143528, Final residual = 1.37981e-14, No Iterations 1000
smoothSolver:  Solving for p, Initial residual = 2.46427e-05, Final residual = 5.50177e-15, No Iterations 1000
diagonal:  Solving for rho, Initial residual = 0, Final residual = 0, No Iterations 0
time step continuity errors : sum local = 1.90486e-16, global = -1.06258e-17, cumulative = -1.12764e-14
ExecutionTime = 165.78 s  ClockTime = 170 s

Time = 0.01495

Courant Number mean: 0.00346058 max: 0.0578996
diagonal:  Solving for rho, Initial residual = 0, Final residual = 0, No Iterations 0
PIMPLE: iteration 1
smoothSolver:  Solving for Ux, Initial residual = 0.00286051, Final residual = 1.66204e-17, No Iterations 2
smoothSolver:  Solving for e, Initial residual = 0.00285261, Final residual = 1.41007e-14, No Iterations 1000
smoothSolver:  Solving for p, Initial residual = 0.00286238, Final residual = 5.62573e-15, No Iterations 1000
diagonal:  Solving for rho, Initial residual = 0, Final residual = 0, No Iterations 0
time step continuity errors : sum local = 1.9229e-16, global = -2.07321e-18, cumulative = -1.12785e-14
PIMPLE: iteration 2
smoothSolver:  Solving for Ux, Initial residual = 7.05727e-06, Final residual = 1.63457e-17, No Iterations 2
smoothSolver:  Solving for e, Initial residual = 0.000145082, Final residual = 1.39532e-14, No Iterations 1000
smoothSolver:  Solving for p, Initial residual = 2.49207e-05, Final residual = 5.08856e-15, No Iterations 1000
diagonal:  Solving for rho, Initial residual = 0, Final residual = 0, No Iterations 0
time step continuity errors : sum local = 1.88921e-16, global = -2.41011e-17, cumulative = -1.13026e-14
ExecutionTime = 165.89 s  ClockTime = 170 s

Time = 0.01496

Courant Number mean: 0.00342416 max: 0.0578996
diagonal:  Solving for rho, Initial residual = 0, Final residual = 0, No Iterations 0
PIMPLE: iteration 1
smoothSolver:  Solving for Ux, Initial residual = 0.00288903, Final residual = 1.51055e-17, No Iterations 2
smoothSolver:  Solving for e, Initial residual = 0.00288107, Final residual = 1.39592e-14, No Iterations 1000
smoothSolver:  Solving for p, Initial residual = 0.00289102, Final residual = 5.36721e-15, No Iterations 1000
diagonal:  Solving for rho, Initial residual = 0, Final residual = 0, No Iterations 0
time step continuity errors : sum local = 1.96556e-16, global = 3.23922e-18, cumulative = -1.12993e-14
PIMPLE: iteration 2
smoothSolver:  Solving for Ux, Initial residual = 7.12791e-06, Final residual = 1.60569e-17, No Iterations 2
smoothSolver:  Solving for e, Initial residual = 0.000146421, Final residual = 1.4373e-14, No Iterations 1000
smoothSolver:  Solving for p, Initial residual = 2.51662e-05, Final residual = 5.58555e-15, No Iterations 1000
diagonal:  Solving for rho, Initial residual = 0, Final residual = 0, No Iterations 0
time step continuity errors : sum local = 1.87875e-16, global = -2.22858e-17, cumulative = -1.13216e-14
ExecutionTime = 166 s  ClockTime = 171 s

Time = 0.01497

Courant Number mean: 0.00338774 max: 0.0578995
diagonal:  Solving for rho, Initial residual = 0, Final residual = 0, No Iterations 0
PIMPLE: iteration 1
smoothSolver:  Solving for Ux, Initial residual = 0.00291822, Final residual = 1.44659e-17, No Iterations 2
smoothSolver:  Solving for e, Initial residual = 0.00291022, Final residual = 1.4463e-14, No Iterations 1000
smoothSolver:  Solving for p, Initial residual = 0.00292029, Final residual = 5.20645e-15, No Iterations 1000
diagonal:  Solving for rho, Initial residual = 0, Final residual = 0, No Iterations 0
time step continuity errors : sum local = 1.9214e-16, global = 4.27554e-18, cumulative = -1.13173e-14
PIMPLE: iteration 2
smoothSolver:  Solving for Ux, Initial residual = 7.1999e-06, Final residual = 1.43362e-17, No Iterations 2
smoothSolver:  Solving for e, Initial residual = 0.000147956, Final residual = 1.38125e-14, No Iterations 1000
smoothSolver:  Solving for p, Initial residual = 2.54038e-05, Final residual = 5.43799e-15, No Iterations 1000
diagonal:  Solving for rho, Initial residual = 0, Final residual = 0, No Iterations 0
time step continuity errors : sum local = 1.93824e-16, global = -1.91751e-17, cumulative = -1.13365e-14
ExecutionTime = 166.11 s  ClockTime = 171 s

Time = 0.01498

Courant Number mean: 0.00335132 max: 0.0578994
diagonal:  Solving for rho, Initial residual = 0, Final residual = 0, No Iterations 0
PIMPLE: iteration 1
smoothSolver:  Solving for Ux, Initial residual = 0.002948, Final residual = 1.67552e-17, No Iterations 2
smoothSolver:  Solving for e, Initial residual = 0.00293995, Final residual = 1.36784e-14, No Iterations 1000
smoothSolver:  Solving for p, Initial residual = 0.00295015, Final residual = 5.36682e-15, No Iterations 1000
diagonal:  Solving for rho, Initial residual = 0, Final residual = 0, No Iterations 0
time step continuity errors : sum local = 2.01717e-16, global = 1.85263e-17, cumulative = -1.1318e-14
PIMPLE: iteration 2
smoothSolver:  Solving for Ux, Initial residual = 7.27354e-06, Final residual = 1.72058e-17, No Iterations 2
smoothSolver:  Solving for e, Initial residual = 0.000149534, Final residual = 1.45153e-14, No Iterations 1000
smoothSolver:  Solving for p, Initial residual = 2.56912e-05, Final residual = 5.64839e-15, No Iterations 1000
diagonal:  Solving for rho, Initial residual = 0, Final residual = 0, No Iterations 0
time step continuity errors : sum local = 1.97571e-16, global = -1.5417e-17, cumulative = -1.13334e-14
ExecutionTime = 166.22 s  ClockTime = 171 s

Time = 0.01499

Courant Number mean: 0.0033149 max: 0.0578994
diagonal:  Solving for rho, Initial residual = 0, Final residual = 0, No Iterations 0
PIMPLE: iteration 1
smoothSolver:  Solving for Ux, Initial residual = 0.00297847, Final residual = 1.46679e-17, No Iterations 2
smoothSolver:  Solving for e, Initial residual = 0.00297036, Final residual = 1.46648e-14, No Iterations 1000
smoothSolver:  Solving for p, Initial residual = 0.00298073, Final residual = 5.48425e-15, No Iterations 1000
diagonal:  Solving for rho, Initial residual = 0, Final residual = 0, No Iterations 0
time step continuity errors : sum local = 1.96265e-16, global = 1.17889e-17, cumulative = -1.13216e-14
PIMPLE: iteration 2
smoothSolver:  Solving for Ux, Initial residual = 7.3488e-06, Final residual = 1.48841e-17, No Iterations 2
smoothSolver:  Solving for e, Initial residual = 0.000150889, Final residual = 1.48253e-14, No Iterations 1000
smoothSolver:  Solving for p, Initial residual = 2.59392e-05, Final residual = 5.47054e-15, No Iterations 1000
diagonal:  Solving for rho, Initial residual = 0, Final residual = 0, No Iterations 0
time step continuity errors : sum local = 1.93415e-16, global = -1.80072e-17, cumulative = -1.13396e-14
ExecutionTime = 166.33 s  ClockTime = 171 s

Time = 0.015

Courant Number mean: 0.00327848 max: 0.0578993
diagonal:  Solving for rho, Initial residual = 0, Final residual = 0, No Iterations 0
PIMPLE: iteration 1
smoothSolver:  Solving for Ux, Initial residual = 0.00300958, Final residual = 1.32278e-17, No Iterations 2
smoothSolver:  Solving for e, Initial residual = 0.00300145, Final residual = 1.47448e-14, No Iterations 1000
smoothSolver:  Solving for p, Initial residual = 0.00301195, Final residual = 5.37299e-15, No Iterations 1000
diagonal:  Solving for rho, Initial residual = 0, Final residual = 0, No Iterations 0
time step continuity errors : sum local = 1.99105e-16, global = 1.87835e-17, cumulative = -1.13208e-14
PIMPLE: iteration 2
smoothSolver:  Solving for Ux, Initial residual = 7.42562e-06, Final residual = 1.46455e-17, No Iterations 2
smoothSolver:  Solving for e, Initial residual = 0.000152661, Final residual = 1.45856e-14, No Iterations 1000
smoothSolver:  Solving for p, Initial residual = 2.62177e-05, Final residual = 5.64332e-15, No Iterations 1000
diagonal:  Solving for rho, Initial residual = 0, Final residual = 0, No Iterations 0
time step continuity errors : sum local = 1.93016e-16, global = -2.8499e-18, cumulative = -1.13237e-14
ExecutionTime = 166.44 s  ClockTime = 171 s

writeRegisteredObject rhofunc output:
    writing object rho

End

