/*---------------------------------------------------------------------------*\
| =========                 |                                                 |
| \\      /  F ield         | OpenFOAM: The Open Source CFD Toolbox           |
|  \\    /   O peration     | Version:  3.0.x                                 |
|   \\  /    A nd           | Web:      www.OpenFOAM.org                      |
|    \\/     M anipulation  |                                                 |
\*---------------------------------------------------------------------------*/
Build  : 3.0.x-4b5e129783d9
Exec   : sonicFoam
Date   : Dec 13 2016
Time   : 16:18:20
Host   : "alex-VirtualBox"
PID    : 9210
Case   : /home/alex/OpenFOAM/alex-3.0.x/run/SH1_43mps
nProcs : 1
sigFpe : Enabling floating point exception trapping (FOAM_SIGFPE).
fileModificationChecking : Monitoring run-time modified files using timeStampMaster
allowSystemOperations : Allowing user-supplied system call operations

// * * * * * * * * * * * * * * * * * * * * * * * * * * * * * * * * * * * * * //
Create time

Create mesh for time = 0


PIMPLE: no residual control data found. Calculations will employ 2 corrector loops

Reading thermophysical properties

Selecting thermodynamics package 
{
    type            hePsiThermo;
    mixture         pureMixture;
    transport       const;
    thermo          hConst;
    equationOfState perfectGas;
    specie          specie;
    energy          sensibleInternalEnergy;
}

Reading field U

Reading/calculating face flux field phi

Creating turbulence model

Selecting turbulence model type laminar
Creating field kinetic energy K

No MRF models present

No finite volume options present


Starting time loop

Time = 1e-05

Courant Number mean: 0.0426786 max: 0.0427
diagonal:  Solving for rho, Initial residual = 0, Final residual = 0, No Iterations 0
PIMPLE: iteration 1
smoothSolver:  Solving for Ux, Initial residual = 0.999923, Final residual = 2.57711e-07, No Iterations 1000
smoothSolver:  Solving for e, Initial residual = 1, Final residual = 6.51107e-12, No Iterations 1000
smoothSolver:  Solving for p, Initial residual = 1, Final residual = 2.7369e-12, No Iterations 1000
diagonal:  Solving for rho, Initial residual = 0, Final residual = 0, No Iterations 0
time step continuity errors : sum local = 2.11742e-16, global = -1.39659e-16, cumulative = -1.39659e-16
PIMPLE: iteration 2
smoothSolver:  Solving for Ux, Initial residual = 0.00635099, Final residual = 6.05789e-14, No Iterations 1000
smoothSolver:  Solving for e, Initial residual = 0.123545, Final residual = 1.57903e-12, No Iterations 1000
smoothSolver:  Solving for p, Initial residual = 0.0283351, Final residual = 6.2312e-13, No Iterations 1000
diagonal:  Solving for rho, Initial residual = 0, Final residual = 0, No Iterations 0
time step continuity errors : sum local = 2.33423e-16, global = -1.8105e-16, cumulative = -3.2071e-16
ExecutionTime = 0.17 s  ClockTime = 0 s

Time = 2e-05

Courant Number mean: 0.0426645 max: 0.0427
diagonal:  Solving for rho, Initial residual = 0, Final residual = 0, No Iterations 0
PIMPLE: iteration 1
smoothSolver:  Solving for Ux, Initial residual = 0.198463, Final residual = 5.02491e-14, No Iterations 1000
smoothSolver:  Solving for e, Initial residual = 0.195904, Final residual = 1.16531e-12, No Iterations 1000
smoothSolver:  Solving for p, Initial residual = 0.199888, Final residual = 5.37303e-13, No Iterations 1000
diagonal:  Solving for rho, Initial residual = 0, Final residual = 0, No Iterations 0
time step continuity errors : sum local = 2.25951e-16, global = -7.86958e-17, cumulative = -3.99406e-16
PIMPLE: iteration 2
smoothSolver:  Solving for Ux, Initial residual = 0.00199373, Final residual = 2.42352e-14, No Iterations 1000
smoothSolver:  Solving for e, Initial residual = 0.0700694, Final residual = 6.72198e-13, No Iterations 1000
smoothSolver:  Solving for p, Initial residual = 0.0128359, Final residual = 3.1542e-13, No Iterations 1000
diagonal:  Solving for rho, Initial residual = 0, Final residual = 0, No Iterations 0
time step continuity errors : sum local = 2.06805e-16, global = -3.33648e-17, cumulative = -4.3277e-16
ExecutionTime = 0.34 s  ClockTime = 0 s

Time = 3e-05

Courant Number mean: 0.042643 max: 0.0427
diagonal:  Solving for rho, Initial residual = 0, Final residual = 0, No Iterations 0
PIMPLE: iteration 1
smoothSolver:  Solving for Ux, Initial residual = 0.133373, Final residual = 2.11421e-14, No Iterations 1000
smoothSolver:  Solving for e, Initial residual = 0.109263, Final residual = 6.34439e-13, No Iterations 1000
smoothSolver:  Solving for p, Initial residual = 0.111306, Final residual = 3.16752e-13, No Iterations 1000
diagonal:  Solving for rho, Initial residual = 0, Final residual = 0, No Iterations 0
time step continuity errors : sum local = 2.10316e-16, global = -7.60178e-17, cumulative = -5.08788e-16
PIMPLE: iteration 2
smoothSolver:  Solving for Ux, Initial residual = 0.00143902, Final residual = 1.3583e-14, No Iterations 1000
smoothSolver:  Solving for e, Initial residual = 0.0319126, Final residual = 4.78069e-13, No Iterations 1000
smoothSolver:  Solving for p, Initial residual = 0.00642385, Final residual = 2.10553e-13, No Iterations 1000
diagonal:  Solving for rho, Initial residual = 0, Final residual = 0, No Iterations 0
time step continuity errors : sum local = 1.98209e-16, global = -7.96779e-17, cumulative = -5.88466e-16
ExecutionTime = 0.5 s  ClockTime = 0 s

Time = 4e-05

Courant Number mean: 0.04262 max: 0.0427
diagonal:  Solving for rho, Initial residual = 0, Final residual = 0, No Iterations 0
PIMPLE: iteration 1
smoothSolver:  Solving for Ux, Initial residual = 0.0974956, Final residual = 1.32565e-14, No Iterations 1000
smoothSolver:  Solving for e, Initial residual = 0.0757178, Final residual = 4.2895e-13, No Iterations 1000
smoothSolver:  Solving for p, Initial residual = 0.0771509, Final residual = 1.94784e-13, No Iterations 1000
diagonal:  Solving for rho, Initial residual = 0, Final residual = 0, No Iterations 0
time step continuity errors : sum local = 1.95949e-16, global = -6.30639e-17, cumulative = -6.5153e-16
PIMPLE: iteration 2
smoothSolver:  Solving for Ux, Initial residual = 0.00111864, Final residual = 9.70003e-15, No Iterations 1000
smoothSolver:  Solving for e, Initial residual = 0.0224718, Final residual = 3.44468e-13, No Iterations 1000
smoothSolver:  Solving for p, Initial residual = 0.00433867, Final residual = 1.58896e-13, No Iterations 1000
diagonal:  Solving for rho, Initial residual = 0, Final residual = 0, No Iterations 0
time step continuity errors : sum local = 1.98764e-16, global = -8.98098e-17, cumulative = -7.4134e-16
ExecutionTime = 0.67 s  ClockTime = 0 s

Time = 5e-05

Courant Number mean: 0.0425964 max: 0.0427
diagonal:  Solving for rho, Initial residual = 0, Final residual = 0, No Iterations 0
PIMPLE: iteration 1
smoothSolver:  Solving for Ux, Initial residual = 0.0757279, Final residual = 9.08205e-15, No Iterations 1000
smoothSolver:  Solving for e, Initial residual = 0.0578926, Final residual = 3.16024e-13, No Iterations 1000
smoothSolver:  Solving for p, Initial residual = 0.0590444, Final residual = 1.45975e-13, No Iterations 1000
diagonal:  Solving for rho, Initial residual = 0, Final residual = 0, No Iterations 0
time step continuity errors : sum local = 1.91717e-16, global = -8.78353e-17, cumulative = -8.29175e-16
PIMPLE: iteration 2
smoothSolver:  Solving for Ux, Initial residual = 0.000921251, Final residual = 7.34449e-15, No Iterations 1000
smoothSolver:  Solving for e, Initial residual = 0.0161075, Final residual = 2.66153e-13, No Iterations 1000
smoothSolver:  Solving for p, Initial residual = 0.00306265, Final residual = 1.3033e-13, No Iterations 1000
diagonal:  Solving for rho, Initial residual = 0, Final residual = 0, No Iterations 0
time step continuity errors : sum local = 1.99318e-16, global = -7.15069e-17, cumulative = -9.00682e-16
ExecutionTime = 0.83 s  ClockTime = 1 s

Time = 6e-05

Courant Number mean: 0.042569 max: 0.0427
diagonal:  Solving for rho, Initial residual = 0, Final residual = 0, No Iterations 0
PIMPLE: iteration 1
smoothSolver:  Solving for Ux, Initial residual = 0.0601571, Final residual = 6.66108e-15, No Iterations 1000
smoothSolver:  Solving for e, Initial residual = 0.0469363, Final residual = 2.52747e-13, No Iterations 1000
smoothSolver:  Solving for p, Initial residual = 0.0492314, Final residual = 1.2206e-13, No Iterations 1000
diagonal:  Solving for rho, Initial residual = 0, Final residual = 0, No Iterations 0
time step continuity errors : sum local = 1.81434e-16, global = -6.57329e-17, cumulative = -9.66415e-16
PIMPLE: iteration 2
smoothSolver:  Solving for Ux, Initial residual = 0.00068026, Final residual = 6.17323e-15, No Iterations 1000
smoothSolver:  Solving for e, Initial residual = 0.0130883, Final residual = 2.22416e-13, No Iterations 1000
smoothSolver:  Solving for p, Initial residual = 0.00249032, Final residual = 1.09193e-13, No Iterations 1000
diagonal:  Solving for rho, Initial residual = 0, Final residual = 0, No Iterations 0
time step continuity errors : sum local = 1.72285e-16, global = -4.70124e-17, cumulative = -1.01343e-15
ExecutionTime = 0.99 s  ClockTime = 1 s

Time = 7e-05

Courant Number mean: 0.0425408 max: 0.0427
diagonal:  Solving for rho, Initial residual = 0, Final residual = 0, No Iterations 0
PIMPLE: iteration 1
smoothSolver:  Solving for Ux, Initial residual = 0.0489566, Final residual = 6.05822e-15, No Iterations 1000
smoothSolver:  Solving for e, Initial residual = 0.0395103, Final residual = 2.18961e-13, No Iterations 1000
smoothSolver:  Solving for p, Initial residual = 0.0464633, Final residual = 1.0059e-13, No Iterations 1000
diagonal:  Solving for rho, Initial residual = 0, Final residual = 0, No Iterations 0
time step continuity errors : sum local = 1.91842e-16, global = -7.05156e-17, cumulative = -1.08394e-15
PIMPLE: iteration 2
smoothSolver:  Solving for Ux, Initial residual = 0.000462979, Final residual = 4.8596e-15, No Iterations 1000
smoothSolver:  Solving for e, Initial residual = 0.0104073, Final residual = 2.03948e-13, No Iterations 1000
smoothSolver:  Solving for p, Initial residual = 0.00195516, Final residual = 8.95603e-14, No Iterations 1000
diagonal:  Solving for rho, Initial residual = 0, Final residual = 0, No Iterations 0
time step continuity errors : sum local = 1.79033e-16, global = -7.54418e-17, cumulative = -1.15938e-15
ExecutionTime = 1.15 s  ClockTime = 1 s

Time = 8e-05

Courant Number mean: 0.0425139 max: 0.0427
diagonal:  Solving for rho, Initial residual = 0, Final residual = 0, No Iterations 0
PIMPLE: iteration 1
smoothSolver:  Solving for Ux, Initial residual = 0.0402756, Final residual = 4.50399e-15, No Iterations 1000
smoothSolver:  Solving for e, Initial residual = 0.0369499, Final residual = 1.96996e-13, No Iterations 1000
smoothSolver:  Solving for p, Initial residual = 0.041916, Final residual = 8.85118e-14, No Iterations 1000
diagonal:  Solving for rho, Initial residual = 0, Final residual = 0, No Iterations 0
time step continuity errors : sum local = 1.93945e-16, global = -7.48756e-17, cumulative = -1.23426e-15
PIMPLE: iteration 2
smoothSolver:  Solving for Ux, Initial residual = 0.000373148, Final residual = 4.42792e-15, No Iterations 1000
smoothSolver:  Solving for e, Initial residual = 0.00898352, Final residual = 1.73321e-13, No Iterations 1000
smoothSolver:  Solving for p, Initial residual = 0.00168827, Final residual = 7.99282e-14, No Iterations 1000
diagonal:  Solving for rho, Initial residual = 0, Final residual = 0, No Iterations 0
time step continuity errors : sum local = 1.84093e-16, global = -5.40455e-17, cumulative = -1.28831e-15
ExecutionTime = 1.32 s  ClockTime = 1 s

Time = 9e-05

Courant Number mean: 0.0424884 max: 0.0427
diagonal:  Solving for rho, Initial residual = 0, Final residual = 0, No Iterations 0
PIMPLE: iteration 1
smoothSolver:  Solving for Ux, Initial residual = 0.0335905, Final residual = 4.34819e-15, No Iterations 1000
smoothSolver:  Solving for e, Initial residual = 0.034409, Final residual = 1.70894e-13, No Iterations 1000
smoothSolver:  Solving for p, Initial residual = 0.0376295, Final residual = 8.17529e-14, No Iterations 1000
diagonal:  Solving for rho, Initial residual = 0, Final residual = 0, No Iterations 0
time step continuity errors : sum local = 2.04632e-16, global = -7.9376e-17, cumulative = -1.36768e-15
PIMPLE: iteration 2
smoothSolver:  Solving for Ux, Initial residual = 0.000309907, Final residual = 3.85041e-15, No Iterations 1000
smoothSolver:  Solving for e, Initial residual = 0.00748952, Final residual = 1.53105e-13, No Iterations 1000
smoothSolver:  Solving for p, Initial residual = 0.00140384, Final residual = 7.22596e-14, No Iterations 1000
diagonal:  Solving for rho, Initial residual = 0, Final residual = 0, No Iterations 0
time step continuity errors : sum local = 1.85914e-16, global = -7.55761e-17, cumulative = -1.44326e-15
ExecutionTime = 1.49 s  ClockTime = 1 s

Time = 0.0001

Courant Number mean: 0.0424622 max: 0.0427
diagonal:  Solving for rho, Initial residual = 0, Final residual = 0, No Iterations 0
PIMPLE: iteration 1
smoothSolver:  Solving for Ux, Initial residual = 0.0284268, Final residual = 3.46663e-15, No Iterations 1000
smoothSolver:  Solving for e, Initial residual = 0.0312647, Final residual = 1.52935e-13, No Iterations 1000
smoothSolver:  Solving for p, Initial residual = 0.032045, Final residual = 7.08871e-14, No Iterations 1000
diagonal:  Solving for rho, Initial residual = 0, Final residual = 0, No Iterations 0
time step continuity errors : sum local = 1.88158e-16, global = -4.96782e-17, cumulative = -1.49294e-15
PIMPLE: iteration 2
smoothSolver:  Solving for Ux, Initial residual = 0.000281027, Final residual = 3.60098e-15, No Iterations 1000
smoothSolver:  Solving for e, Initial residual = 0.00768005, Final residual = 1.44985e-13, No Iterations 1000
smoothSolver:  Solving for p, Initial residual = 0.00139389, Final residual = 6.54954e-14, No Iterations 1000
diagonal:  Solving for rho, Initial residual = 0, Final residual = 0, No Iterations 0
time step continuity errors : sum local = 1.92099e-16, global = -5.69963e-17, cumulative = -1.54993e-15
ExecutionTime = 1.66 s  ClockTime = 1 s

Time = 0.00011

Courant Number mean: 0.0424338 max: 0.0427
diagonal:  Solving for rho, Initial residual = 0, Final residual = 0, No Iterations 0
PIMPLE: iteration 1
smoothSolver:  Solving for Ux, Initial residual = 0.0268262, Final residual = 3.43934e-15, No Iterations 1000
smoothSolver:  Solving for e, Initial residual = 0.0271875, Final residual = 1.38217e-13, No Iterations 1000
smoothSolver:  Solving for p, Initial residual = 0.0274068, Final residual = 6.84136e-14, No Iterations 1000
diagonal:  Solving for rho, Initial residual = 0, Final residual = 0, No Iterations 0
time step continuity errors : sum local = 1.83365e-16, global = -2.23754e-17, cumulative = -1.57231e-15
PIMPLE: iteration 2
smoothSolver:  Solving for Ux, Initial residual = 0.000244167, Final residual = 3.15112e-15, No Iterations 1000
smoothSolver:  Solving for e, Initial residual = 0.00706221, Final residual = 1.2933e-13, No Iterations 1000
smoothSolver:  Solving for p, Initial residual = 0.00127453, Final residual = 5.65344e-14, No Iterations 1000
diagonal:  Solving for rho, Initial residual = 0, Final residual = 0, No Iterations 0
time step continuity errors : sum local = 1.83928e-16, global = -3.61665e-17, cumulative = -1.60847e-15
ExecutionTime = 1.82 s  ClockTime = 2 s

Time = 0.00012

Courant Number mean: 0.0424059 max: 0.0427
diagonal:  Solving for rho, Initial residual = 0, Final residual = 0, No Iterations 0
PIMPLE: iteration 1
smoothSolver:  Solving for Ux, Initial residual = 0.0250839, Final residual = 2.95722e-15, No Iterations 1000
smoothSolver:  Solving for e, Initial residual = 0.0241173, Final residual = 1.24087e-13, No Iterations 1000
smoothSolver:  Solving for p, Initial residual = 0.0247344, Final residual = 5.69425e-14, No Iterations 1000
diagonal:  Solving for rho, Initial residual = 0, Final residual = 0, No Iterations 0
time step continuity errors : sum local = 1.84765e-16, global = -3.8135e-17, cumulative = -1.64661e-15
PIMPLE: iteration 2
smoothSolver:  Solving for Ux, Initial residual = 0.000217556, Final residual = 2.9511e-15, No Iterations 1000
smoothSolver:  Solving for e, Initial residual = 0.00603973, Final residual = 1.12395e-13, No Iterations 1000
smoothSolver:  Solving for p, Initial residual = 0.00109074, Final residual = 5.62617e-14, No Iterations 1000
diagonal:  Solving for rho, Initial residual = 0, Final residual = 0, No Iterations 0
time step continuity errors : sum local = 1.98837e-16, global = -4.32009e-17, cumulative = -1.68981e-15
ExecutionTime = 1.98 s  ClockTime = 2 s

Time = 0.00013

Courant Number mean: 0.0423767 max: 0.0427
diagonal:  Solving for rho, Initial residual = 0, Final residual = 0, No Iterations 0
PIMPLE: iteration 1
smoothSolver:  Solving for Ux, Initial residual = 0.0233202, Final residual = 2.73063e-15, No Iterations 1000
smoothSolver:  Solving for e, Initial residual = 0.0217931, Final residual = 1.14311e-13, No Iterations 1000
smoothSolver:  Solving for p, Initial residual = 0.0235086, Final residual = 5.32565e-14, No Iterations 1000
diagonal:  Solving for rho, Initial residual = 0, Final residual = 0, No Iterations 0
time step continuity errors : sum local = 1.81661e-16, global = -3.08163e-17, cumulative = -1.72063e-15
PIMPLE: iteration 2
smoothSolver:  Solving for Ux, Initial residual = 0.00018982, Final residual = 2.61852e-15, No Iterations 1000
smoothSolver:  Solving for e, Initial residual = 0.00511114, Final residual = 1.06703e-13, No Iterations 1000
smoothSolver:  Solving for p, Initial residual = 0.000924931, Final residual = 5.08019e-14, No Iterations 1000
diagonal:  Solving for rho, Initial residual = 0, Final residual = 0, No Iterations 0
time step continuity errors : sum local = 1.9714e-16, global = -5.55819e-17, cumulative = -1.77621e-15
ExecutionTime = 2.15 s  ClockTime = 2 s

Time = 0.00014

Courant Number mean: 0.0423503 max: 0.0427
diagonal:  Solving for rho, Initial residual = 0, Final residual = 0, No Iterations 0
PIMPLE: iteration 1
smoothSolver:  Solving for Ux, Initial residual = 0.0212788, Final residual = 2.56733e-15, No Iterations 1000
smoothSolver:  Solving for e, Initial residual = 0.0207095, Final residual = 1.0631e-13, No Iterations 1000
smoothSolver:  Solving for p, Initial residual = 0.0216357, Final residual = 5.10148e-14, No Iterations 1000
diagonal:  Solving for rho, Initial residual = 0, Final residual = 0, No Iterations 0
time step continuity errors : sum local = 1.92347e-16, global = -3.02521e-17, cumulative = -1.80646e-15
PIMPLE: iteration 2
smoothSolver:  Solving for Ux, Initial residual = 0.000163763, Final residual = 2.51158e-15, No Iterations 1000
smoothSolver:  Solving for e, Initial residual = 0.00444387, Final residual = 1.03729e-13, No Iterations 1000
smoothSolver:  Solving for p, Initial residual = 0.000810083, Final residual = 4.78844e-14, No Iterations 1000
diagonal:  Solving for rho, Initial residual = 0, Final residual = 0, No Iterations 0
time step continuity errors : sum local = 1.94458e-16, global = -4.16494e-17, cumulative = -1.84811e-15
ExecutionTime = 2.31 s  ClockTime = 2 s

Time = 0.00015

Courant Number mean: 0.0423223 max: 0.0427
diagonal:  Solving for rho, Initial residual = 0, Final residual = 0, No Iterations 0
PIMPLE: iteration 1
smoothSolver:  Solving for Ux, Initial residual = 0.0195209, Final residual = 2.52269e-15, No Iterations 1000
smoothSolver:  Solving for e, Initial residual = 0.0191727, Final residual = 1.03449e-13, No Iterations 1000
smoothSolver:  Solving for p, Initial residual = 0.0198936, Final residual = 4.38904e-14, No Iterations 1000
diagonal:  Solving for rho, Initial residual = 0, Final residual = 0, No Iterations 0
time step continuity errors : sum local = 1.91354e-16, global = -2.08238e-17, cumulative = -1.86893e-15
PIMPLE: iteration 2
smoothSolver:  Solving for Ux, Initial residual = 0.00014854, Final residual = 2.32293e-15, No Iterations 1000
smoothSolver:  Solving for e, Initial residual = 0.00414108, Final residual = 8.95126e-14, No Iterations 1000
smoothSolver:  Solving for p, Initial residual = 0.000743417, Final residual = 4.42042e-14, No Iterations 1000
diagonal:  Solving for rho, Initial residual = 0, Final residual = 0, No Iterations 0
time step continuity errors : sum local = 1.9248e-16, global = -3.9115e-17, cumulative = -1.90805e-15
ExecutionTime = 2.47 s  ClockTime = 2 s

Time = 0.00016

Courant Number mean: 0.0422952 max: 0.0427
diagonal:  Solving for rho, Initial residual = 0, Final residual = 0, No Iterations 0
PIMPLE: iteration 1
smoothSolver:  Solving for Ux, Initial residual = 0.018127, Final residual = 2.30153e-15, No Iterations 1000
smoothSolver:  Solving for e, Initial residual = 0.0178354, Final residual = 9.38049e-14, No Iterations 1000
smoothSolver:  Solving for p, Initial residual = 0.0183685, Final residual = 4.27554e-14, No Iterations 1000
diagonal:  Solving for rho, Initial residual = 0, Final residual = 0, No Iterations 0
time step continuity errors : sum local = 1.8403e-16, global = -1.09743e-17, cumulative = -1.91902e-15
PIMPLE: iteration 2
smoothSolver:  Solving for Ux, Initial residual = 0.000134547, Final residual = 2.15415e-15, No Iterations 1000
smoothSolver:  Solving for e, Initial residual = 0.0038428, Final residual = 8.82995e-14, No Iterations 1000
smoothSolver:  Solving for p, Initial residual = 0.000691261, Final residual = 4.17892e-14, No Iterations 1000
diagonal:  Solving for rho, Initial residual = 0, Final residual = 0, No Iterations 0
time step continuity errors : sum local = 1.86703e-16, global = -4.12238e-17, cumulative = -1.96025e-15
ExecutionTime = 2.63 s  ClockTime = 2 s

Time = 0.00017

Courant Number mean: 0.0422675 max: 0.0427
diagonal:  Solving for rho, Initial residual = 0, Final residual = 0, No Iterations 0
PIMPLE: iteration 1
smoothSolver:  Solving for Ux, Initial residual = 0.0169668, Final residual = 2.18256e-15, No Iterations 1000
smoothSolver:  Solving for e, Initial residual = 0.0166048, Final residual = 8.57898e-14, No Iterations 1000
smoothSolver:  Solving for p, Initial residual = 0.0172677, Final residual = 4.09944e-14, No Iterations 1000
diagonal:  Solving for rho, Initial residual = 0, Final residual = 0, No Iterations 0
time step continuity errors : sum local = 1.91901e-16, global = -6.19034e-18, cumulative = -1.96644e-15
PIMPLE: iteration 2
smoothSolver:  Solving for Ux, Initial residual = 0.000121676, Final residual = 2.15597e-15, No Iterations 1000
smoothSolver:  Solving for e, Initial residual = 0.00336993, Final residual = 8.42615e-14, No Iterations 1000
smoothSolver:  Solving for p, Initial residual = 0.000609213, Final residual = 3.82384e-14, No Iterations 1000
diagonal:  Solving for rho, Initial residual = 0, Final residual = 0, No Iterations 0
time step continuity errors : sum local = 1.71501e-16, global = -2.32138e-17, cumulative = -1.98965e-15
ExecutionTime = 2.8 s  ClockTime = 3 s

Time = 0.00018

Courant Number mean: 0.0422402 max: 0.0427
diagonal:  Solving for rho, Initial residual = 0, Final residual = 0, No Iterations 0
PIMPLE: iteration 1
smoothSolver:  Solving for Ux, Initial residual = 0.0159855, Final residual = 1.96726e-15, No Iterations 1000
smoothSolver:  Solving for e, Initial residual = 0.0157076, Final residual = 7.95291e-14, No Iterations 1000
smoothSolver:  Solving for p, Initial residual = 0.0159583, Final residual = 3.84616e-14, No Iterations 1000
diagonal:  Solving for rho, Initial residual = 0, Final residual = 0, No Iterations 0
time step continuity errors : sum local = 1.89923e-16, global = -4.55815e-17, cumulative = -2.03523e-15
PIMPLE: iteration 2
smoothSolver:  Solving for Ux, Initial residual = 0.000112057, Final residual = 2.00082e-15, No Iterations 1000
smoothSolver:  Solving for e, Initial residual = 0.00314205, Final residual = 7.74833e-14, No Iterations 1000
smoothSolver:  Solving for p, Initial residual = 0.000564334, Final residual = 3.52557e-14, No Iterations 1000
diagonal:  Solving for rho, Initial residual = 0, Final residual = 0, No Iterations 0
time step continuity errors : sum local = 1.81904e-16, global = -4.03762e-17, cumulative = -2.07561e-15
ExecutionTime = 2.96 s  ClockTime = 3 s

Time = 0.00019

Courant Number mean: 0.0422125 max: 0.0427
diagonal:  Solving for rho, Initial residual = 0, Final residual = 0, No Iterations 0
PIMPLE: iteration 1
smoothSolver:  Solving for Ux, Initial residual = 0.015035, Final residual = 1.87749e-15, No Iterations 1000
smoothSolver:  Solving for e, Initial residual = 0.014647, Final residual = 8.16865e-14, No Iterations 1000
smoothSolver:  Solving for p, Initial residual = 0.0149923, Final residual = 3.75291e-14, No Iterations 1000
diagonal:  Solving for rho, Initial residual = 0, Final residual = 0, No Iterations 0
time step continuity errors : sum local = 1.88649e-16, global = -3.47474e-17, cumulative = -2.11036e-15
PIMPLE: iteration 2
smoothSolver:  Solving for Ux, Initial residual = 0.000103338, Final residual = 1.87821e-15, No Iterations 1000
smoothSolver:  Solving for e, Initial residual = 0.00295051, Final residual = 7.36484e-14, No Iterations 1000
smoothSolver:  Solving for p, Initial residual = 0.00053069, Final residual = 3.34644e-14, No Iterations 1000
diagonal:  Solving for rho, Initial residual = 0, Final residual = 0, No Iterations 0
time step continuity errors : sum local = 1.83866e-16, global = -2.54626e-17, cumulative = -2.13582e-15
ExecutionTime = 3.12 s  ClockTime = 3 s

Time = 0.0002

Courant Number mean: 0.0421847 max: 0.0427
diagonal:  Solving for rho, Initial residual = 0, Final residual = 0, No Iterations 0
PIMPLE: iteration 1
smoothSolver:  Solving for Ux, Initial residual = 0.0142226, Final residual = 1.88291e-15, No Iterations 1000
smoothSolver:  Solving for e, Initial residual = 0.0137853, Final residual = 7.30911e-14, No Iterations 1000
smoothSolver:  Solving for p, Initial residual = 0.0141196, Final residual = 3.35515e-14, No Iterations 1000
diagonal:  Solving for rho, Initial residual = 0, Final residual = 0, No Iterations 0
time step continuity errors : sum local = 1.89063e-16, global = -2.08194e-17, cumulative = -2.15664e-15
PIMPLE: iteration 2
smoothSolver:  Solving for Ux, Initial residual = 9.49282e-05, Final residual = 1.70182e-15, No Iterations 1000
smoothSolver:  Solving for e, Initial residual = 0.00272643, Final residual = 7.37278e-14, No Iterations 1000
smoothSolver:  Solving for p, Initial residual = 0.000489779, Final residual = 3.29741e-14, No Iterations 1000
diagonal:  Solving for rho, Initial residual = 0, Final residual = 0, No Iterations 0
time step continuity errors : sum local = 1.93564e-16, global = -1.37858e-17, cumulative = -2.17042e-15
ExecutionTime = 3.28 s  ClockTime = 3 s

Time = 0.00021

Courant Number mean: 0.0421572 max: 0.0427
diagonal:  Solving for rho, Initial residual = 0, Final residual = 0, No Iterations 0
PIMPLE: iteration 1
smoothSolver:  Solving for Ux, Initial residual = 0.0133867, Final residual = 1.73943e-15, No Iterations 1000
smoothSolver:  Solving for e, Initial residual = 0.0130524, Final residual = 7.06561e-14, No Iterations 1000
smoothSolver:  Solving for p, Initial residual = 0.013551, Final residual = 3.14774e-14, No Iterations 1000
diagonal:  Solving for rho, Initial residual = 0, Final residual = 0, No Iterations 0
time step continuity errors : sum local = 1.80615e-16, global = -3.60104e-17, cumulative = -2.20643e-15
PIMPLE: iteration 2
smoothSolver:  Solving for Ux, Initial residual = 8.79549e-05, Final residual = 1.70517e-15, No Iterations 1000
smoothSolver:  Solving for e, Initial residual = 0.00246516, Final residual = 6.54193e-14, No Iterations 1000
smoothSolver:  Solving for p, Initial residual = 0.00044155, Final residual = 3.21019e-14, No Iterations 1000
diagonal:  Solving for rho, Initial residual = 0, Final residual = 0, No Iterations 0
time step continuity errors : sum local = 1.88632e-16, global = -9.70592e-18, cumulative = -2.21614e-15
ExecutionTime = 3.45 s  ClockTime = 3 s

Time = 0.00022

Courant Number mean: 0.04213 max: 0.0427
diagonal:  Solving for rho, Initial residual = 0, Final residual = 0, No Iterations 0
PIMPLE: iteration 1
smoothSolver:  Solving for Ux, Initial residual = 0.0127189, Final residual = 1.67722e-15, No Iterations 1000
smoothSolver:  Solving for e, Initial residual = 0.0125547, Final residual = 6.46987e-14, No Iterations 1000
smoothSolver:  Solving for p, Initial residual = 0.0128256, Final residual = 3.14877e-14, No Iterations 1000
diagonal:  Solving for rho, Initial residual = 0, Final residual = 0, No Iterations 0
time step continuity errors : sum local = 1.88484e-16, global = -1.12528e-17, cumulative = -2.22739e-15
PIMPLE: iteration 2
smoothSolver:  Solving for Ux, Initial residual = 8.15423e-05, Final residual = 1.56832e-15, No Iterations 1000
smoothSolver:  Solving for e, Initial residual = 0.00223632, Final residual = 6.44087e-14, No Iterations 1000
smoothSolver:  Solving for p, Initial residual = 0.000402106, Final residual = 2.89196e-14, No Iterations 1000
diagonal:  Solving for rho, Initial residual = 0, Final residual = 0, No Iterations 0
time step continuity errors : sum local = 1.83701e-16, global = -1.80044e-17, cumulative = -2.2454e-15
ExecutionTime = 3.61 s  ClockTime = 3 s

Time = 0.00023

Courant Number mean: 0.0421028 max: 0.0427
diagonal:  Solving for rho, Initial residual = 0, Final residual = 0, No Iterations 0
PIMPLE: iteration 1
smoothSolver:  Solving for Ux, Initial residual = 0.0121226, Final residual = 1.53156e-15, No Iterations 1000
smoothSolver:  Solving for e, Initial residual = 0.0119506, Final residual = 6.5466e-14, No Iterations 1000
smoothSolver:  Solving for p, Initial residual = 0.0121957, Final residual = 2.90949e-14, No Iterations 1000
diagonal:  Solving for rho, Initial residual = 0, Final residual = 0, No Iterations 0
time step continuity errors : sum local = 1.96071e-16, global = -2.86933e-17, cumulative = -2.27409e-15
PIMPLE: iteration 2
smoothSolver:  Solving for Ux, Initial residual = 7.6678e-05, Final residual = 1.50939e-15, No Iterations 1000
smoothSolver:  Solving for e, Initial residual = 0.00210191, Final residual = 6.26675e-14, No Iterations 1000
smoothSolver:  Solving for p, Initial residual = 0.000377325, Final residual = 2.89734e-14, No Iterations 1000
diagonal:  Solving for rho, Initial residual = 0, Final residual = 0, No Iterations 0
time step continuity errors : sum local = 1.83272e-16, global = -2.32078e-17, cumulative = -2.2973e-15
ExecutionTime = 3.77 s  ClockTime = 4 s

Time = 0.00024

Courant Number mean: 0.0420753 max: 0.0427
diagonal:  Solving for rho, Initial residual = 0, Final residual = 0, No Iterations 0
PIMPLE: iteration 1
smoothSolver:  Solving for Ux, Initial residual = 0.0115731, Final residual = 1.51452e-15, No Iterations 1000
smoothSolver:  Solving for e, Initial residual = 0.0113904, Final residual = 6.31593e-14, No Iterations 1000
smoothSolver:  Solving for p, Initial residual = 0.011519, Final residual = 2.7943e-14, No Iterations 1000
diagonal:  Solving for rho, Initial residual = 0, Final residual = 0, No Iterations 0
time step continuity errors : sum local = 1.90015e-16, global = -1.50493e-17, cumulative = -2.31235e-15
PIMPLE: iteration 2
smoothSolver:  Solving for Ux, Initial residual = 7.22799e-05, Final residual = 1.4065e-15, No Iterations 1000
smoothSolver:  Solving for e, Initial residual = 0.00202938, Final residual = 6.15231e-14, No Iterations 1000
smoothSolver:  Solving for p, Initial residual = 0.000362507, Final residual = 2.70535e-14, No Iterations 1000
diagonal:  Solving for rho, Initial residual = 0, Final residual = 0, No Iterations 0
time step continuity errors : sum local = 1.95922e-16, global = -2.15191e-17, cumulative = -2.33387e-15
ExecutionTime = 3.94 s  ClockTime = 4 s

Time = 0.00025

Courant Number mean: 0.0420477 max: 0.0427
diagonal:  Solving for rho, Initial residual = 0, Final residual = 0, No Iterations 0
PIMPLE: iteration 1
smoothSolver:  Solving for Ux, Initial residual = 0.0110703, Final residual = 1.39683e-15, No Iterations 1000
smoothSolver:  Solving for e, Initial residual = 0.0108355, Final residual = 5.92044e-14, No Iterations 1000
smoothSolver:  Solving for p, Initial residual = 0.0110261, Final residual = 2.62915e-14, No Iterations 1000
diagonal:  Solving for rho, Initial residual = 0, Final residual = 0, No Iterations 0
time step continuity errors : sum local = 1.86491e-16, global = -1.04075e-17, cumulative = -2.34427e-15
PIMPLE: iteration 2
smoothSolver:  Solving for Ux, Initial residual = 6.79338e-05, Final residual = 1.37447e-15, No Iterations 1000
smoothSolver:  Solving for e, Initial residual = 0.00190152, Final residual = 5.78789e-14, No Iterations 1000
smoothSolver:  Solving for p, Initial residual = 0.000340073, Final residual = 2.64147e-14, No Iterations 1000
diagonal:  Solving for rho, Initial residual = 0, Final residual = 0, No Iterations 0
time step continuity errors : sum local = 1.76927e-16, global = -2.9816e-17, cumulative = -2.37409e-15
ExecutionTime = 4.1 s  ClockTime = 4 s

Time = 0.00026

Courant Number mean: 0.0420202 max: 0.0427
diagonal:  Solving for rho, Initial residual = 0, Final residual = 0, No Iterations 0
PIMPLE: iteration 1
smoothSolver:  Solving for Ux, Initial residual = 0.0106405, Final residual = 1.36551e-15, No Iterations 1000
smoothSolver:  Solving for e, Initial residual = 0.0103768, Final residual = 5.58948e-14, No Iterations 1000
smoothSolver:  Solving for p, Initial residual = 0.0105689, Final residual = 2.66733e-14, No Iterations 1000
diagonal:  Solving for rho, Initial residual = 0, Final residual = 0, No Iterations 0
time step continuity errors : sum local = 1.78467e-16, global = 4.92224e-18, cumulative = -2.36917e-15
PIMPLE: iteration 2
smoothSolver:  Solving for Ux, Initial residual = 6.39788e-05, Final residual = 1.38664e-15, No Iterations 1000
smoothSolver:  Solving for e, Initial residual = 0.00178024, Final residual = 5.54218e-14, No Iterations 1000
smoothSolver:  Solving for p, Initial residual = 0.000316733, Final residual = 2.56402e-14, No Iterations 1000
diagonal:  Solving for rho, Initial residual = 0, Final residual = 0, No Iterations 0
time step continuity errors : sum local = 1.85358e-16, global = -7.59432e-18, cumulative = -2.37676e-15
ExecutionTime = 4.26 s  ClockTime = 4 s

Time = 0.00027

Courant Number mean: 0.0419929 max: 0.0427
diagonal:  Solving for rho, Initial residual = 0, Final residual = 0, No Iterations 0
PIMPLE: iteration 1
smoothSolver:  Solving for Ux, Initial residual = 0.0102196, Final residual = 1.35578e-15, No Iterations 1000
smoothSolver:  Solving for e, Initial residual = 0.00998666, Final residual = 5.233e-14, No Iterations 1000
smoothSolver:  Solving for p, Initial residual = 0.0101868, Final residual = 2.48472e-14, No Iterations 1000
diagonal:  Solving for rho, Initial residual = 0, Final residual = 0, No Iterations 0
time step continuity errors : sum local = 1.91397e-16, global = -1.84225e-17, cumulative = -2.39518e-15
PIMPLE: iteration 2
smoothSolver:  Solving for Ux, Initial residual = 6.04194e-05, Final residual = 1.28904e-15, No Iterations 1000
smoothSolver:  Solving for e, Initial residual = 0.00165486, Final residual = 5.21885e-14, No Iterations 1000
smoothSolver:  Solving for p, Initial residual = 0.000295469, Final residual = 2.41763e-14, No Iterations 1000
diagonal:  Solving for rho, Initial residual = 0, Final residual = 0, No Iterations 0
time step continuity errors : sum local = 1.91116e-16, global = -1.72974e-17, cumulative = -2.41248e-15
ExecutionTime = 4.42 s  ClockTime = 4 s

Time = 0.00028

Courant Number mean: 0.0419656 max: 0.0427
diagonal:  Solving for rho, Initial residual = 0, Final residual = 0, No Iterations 0
PIMPLE: iteration 1
smoothSolver:  Solving for Ux, Initial residual = 0.00980854, Final residual = 1.28174e-15, No Iterations 1000
smoothSolver:  Solving for e, Initial residual = 0.00962596, Final residual = 5.24207e-14, No Iterations 1000
smoothSolver:  Solving for p, Initial residual = 0.00978618, Final residual = 2.42046e-14, No Iterations 1000
diagonal:  Solving for rho, Initial residual = 0, Final residual = 0, No Iterations 0
time step continuity errors : sum local = 1.83232e-16, global = -7.7343e-18, cumulative = -2.42022e-15
PIMPLE: iteration 2
smoothSolver:  Solving for Ux, Initial residual = 5.72118e-05, Final residual = 1.26747e-15, No Iterations 1000
smoothSolver:  Solving for e, Initial residual = 0.00155576, Final residual = 4.88423e-14, No Iterations 1000
smoothSolver:  Solving for p, Initial residual = 0.000278137, Final residual = 2.29619e-14, No Iterations 1000
diagonal:  Solving for rho, Initial residual = 0, Final residual = 0, No Iterations 0
time step continuity errors : sum local = 1.85764e-16, global = 7.1718e-18, cumulative = -2.41304e-15
ExecutionTime = 4.59 s  ClockTime = 4 s

Time = 0.00029

Courant Number mean: 0.0419383 max: 0.0427
diagonal:  Solving for rho, Initial residual = 0, Final residual = 0, No Iterations 0
PIMPLE: iteration 1
smoothSolver:  Solving for Ux, Initial residual = 0.00942933, Final residual = 1.22846e-15, No Iterations 1000
smoothSolver:  Solving for e, Initial residual = 0.00927119, Final residual = 5.05868e-14, No Iterations 1000
smoothSolver:  Solving for p, Initial residual = 0.00942312, Final residual = 2.33966e-14, No Iterations 1000
diagonal:  Solving for rho, Initial residual = 0, Final residual = 0, No Iterations 0
time step continuity errors : sum local = 1.80131e-16, global = -2.3905e-18, cumulative = -2.41543e-15
PIMPLE: iteration 2
smoothSolver:  Solving for Ux, Initial residual = 5.43937e-05, Final residual = 1.18516e-15, No Iterations 1000
smoothSolver:  Solving for e, Initial residual = 0.00149088, Final residual = 5.02169e-14, No Iterations 1000
smoothSolver:  Solving for p, Initial residual = 0.000265083, Final residual = 2.19629e-14, No Iterations 1000
diagonal:  Solving for rho, Initial residual = 0, Final residual = 0, No Iterations 0
time step continuity errors : sum local = 1.80975e-16, global = -1.82803e-18, cumulative = -2.41726e-15
ExecutionTime = 4.75 s  ClockTime = 5 s

Time = 0.0003

Courant Number mean: 0.0419109 max: 0.0427
diagonal:  Solving for rho, Initial residual = 0, Final residual = 0, No Iterations 0
PIMPLE: iteration 1
smoothSolver:  Solving for Ux, Initial residual = 0.00908366, Final residual = 1.16848e-15, No Iterations 1000
smoothSolver:  Solving for e, Initial residual = 0.00894177, Final residual = 5.02955e-14, No Iterations 1000
smoothSolver:  Solving for p, Initial residual = 0.00906268, Final residual = 2.2608e-14, No Iterations 1000
diagonal:  Solving for rho, Initial residual = 0, Final residual = 0, No Iterations 0
time step continuity errors : sum local = 1.79702e-16, global = -1.12489e-18, cumulative = -2.41839e-15
PIMPLE: iteration 2
smoothSolver:  Solving for Ux, Initial residual = 5.18106e-05, Final residual = 1.13214e-15, No Iterations 1000
smoothSolver:  Solving for e, Initial residual = 0.00142129, Final residual = 4.64083e-14, No Iterations 1000
smoothSolver:  Solving for p, Initial residual = 0.000253144, Final residual = 2.16452e-14, No Iterations 1000
diagonal:  Solving for rho, Initial residual = 0, Final residual = 0, No Iterations 0
time step continuity errors : sum local = 1.82514e-16, global = -1.0124e-17, cumulative = -2.42851e-15
ExecutionTime = 4.91 s  ClockTime = 5 s

Time = 0.00031

Courant Number mean: 0.0418836 max: 0.0427
diagonal:  Solving for rho, Initial residual = 0, Final residual = 0, No Iterations 0
PIMPLE: iteration 1
smoothSolver:  Solving for Ux, Initial residual = 0.00880001, Final residual = 1.12706e-15, No Iterations 1000
smoothSolver:  Solving for e, Initial residual = 0.00862736, Final residual = 4.70349e-14, No Iterations 1000
smoothSolver:  Solving for p, Initial residual = 0.00876249, Final residual = 2.20324e-14, No Iterations 1000
diagonal:  Solving for rho, Initial residual = 0, Final residual = 0, No Iterations 0
time step continuity errors : sum local = 1.86302e-16, global = -1.392e-17, cumulative = -2.44243e-15
PIMPLE: iteration 2
smoothSolver:  Solving for Ux, Initial residual = 4.93336e-05, Final residual = 1.14994e-15, No Iterations 1000
smoothSolver:  Solving for e, Initial residual = 0.00134052, Final residual = 4.74413e-14, No Iterations 1000
smoothSolver:  Solving for p, Initial residual = 0.000239006, Final residual = 2.14279e-14, No Iterations 1000
diagonal:  Solving for rho, Initial residual = 0, Final residual = 0, No Iterations 0
time step continuity errors : sum local = 1.84756e-16, global = -1.65915e-17, cumulative = -2.45902e-15
ExecutionTime = 5.07 s  ClockTime = 5 s

Time = 0.00032

Courant Number mean: 0.0418562 max: 0.0427
diagonal:  Solving for rho, Initial residual = 0, Final residual = 0, No Iterations 0
PIMPLE: iteration 1
smoothSolver:  Solving for Ux, Initial residual = 0.00851467, Final residual = 1.1264e-15, No Iterations 1000
smoothSolver:  Solving for e, Initial residual = 0.00834387, Final residual = 4.62288e-14, No Iterations 1000
smoothSolver:  Solving for p, Initial residual = 0.00846531, Final residual = 2.17822e-14, No Iterations 1000
diagonal:  Solving for rho, Initial residual = 0, Final residual = 0, No Iterations 0
time step continuity errors : sum local = 1.91497e-16, global = -1.85591e-17, cumulative = -2.47758e-15
PIMPLE: iteration 2
smoothSolver:  Solving for Ux, Initial residual = 4.70763e-05, Final residual = 1.08505e-15, No Iterations 1000
smoothSolver:  Solving for e, Initial residual = 0.00128469, Final residual = 4.34925e-14, No Iterations 1000
smoothSolver:  Solving for p, Initial residual = 0.000228103, Final residual = 2.07849e-14, No Iterations 1000
diagonal:  Solving for rho, Initial residual = 0, Final residual = 0, No Iterations 0
time step continuity errors : sum local = 1.83482e-16, global = -1.89809e-17, cumulative = -2.49656e-15
ExecutionTime = 5.23 s  ClockTime = 5 s

Time = 0.00033

Courant Number mean: 0.041829 max: 0.0427
diagonal:  Solving for rho, Initial residual = 0, Final residual = 0, No Iterations 0
PIMPLE: iteration 1
smoothSolver:  Solving for Ux, Initial residual = 0.00824581, Final residual = 1.06285e-15, No Iterations 1000
smoothSolver:  Solving for e, Initial residual = 0.0080851, Final residual = 4.53564e-14, No Iterations 1000
smoothSolver:  Solving for p, Initial residual = 0.00820263, Final residual = 1.96024e-14, No Iterations 1000
diagonal:  Solving for rho, Initial residual = 0, Final residual = 0, No Iterations 0
time step continuity errors : sum local = 1.80663e-16, global = -1.25128e-17, cumulative = -2.50908e-15
PIMPLE: iteration 2
smoothSolver:  Solving for Ux, Initial residual = 4.49921e-05, Final residual = 1.03987e-15, No Iterations 1000
smoothSolver:  Solving for e, Initial residual = 0.00122484, Final residual = 4.48822e-14, No Iterations 1000
smoothSolver:  Solving for p, Initial residual = 0.000217833, Final residual = 2.10158e-14, No Iterations 1000
diagonal:  Solving for rho, Initial residual = 0, Final residual = 0, No Iterations 0
time step continuity errors : sum local = 1.88395e-16, global = -1.96831e-17, cumulative = -2.52876e-15
ExecutionTime = 5.39 s  ClockTime = 5 s

Time = 0.00034

Courant Number mean: 0.0418016 max: 0.0427
diagonal:  Solving for rho, Initial residual = 0, Final residual = 0, No Iterations 0
PIMPLE: iteration 1
smoothSolver:  Solving for Ux, Initial residual = 0.00798092, Final residual = 1.0493e-15, No Iterations 1000
smoothSolver:  Solving for e, Initial residual = 0.00783365, Final residual = 4.28192e-14, No Iterations 1000
smoothSolver:  Solving for p, Initial residual = 0.00795279, Final residual = 1.95118e-14, No Iterations 1000
diagonal:  Solving for rho, Initial residual = 0, Final residual = 0, No Iterations 0
time step continuity errors : sum local = 1.75734e-16, global = -1.01223e-17, cumulative = -2.53888e-15
PIMPLE: iteration 2
smoothSolver:  Solving for Ux, Initial residual = 4.30942e-05, Final residual = 9.97514e-16, No Iterations 2
smoothSolver:  Solving for e, Initial residual = 0.00115869, Final residual = 4.25408e-14, No Iterations 1000
smoothSolver:  Solving for p, Initial residual = 0.000205771, Final residual = 1.90852e-14, No Iterations 1000
diagonal:  Solving for rho, Initial residual = 0, Final residual = 0, No Iterations 0
time step continuity errors : sum local = 1.90215e-16, global = -2.34781e-17, cumulative = -2.56236e-15
ExecutionTime = 5.53 s  ClockTime = 5 s

Time = 0.00035

Courant Number mean: 0.0417745 max: 0.0427
diagonal:  Solving for rho, Initial residual = 0, Final residual = 0, No Iterations 0
PIMPLE: iteration 1
smoothSolver:  Solving for Ux, Initial residual = 0.00774176, Final residual = 1.02634e-15, No Iterations 1000
smoothSolver:  Solving for e, Initial residual = 0.00761502, Final residual = 4.22894e-14, No Iterations 1000
smoothSolver:  Solving for p, Initial residual = 0.00770848, Final residual = 1.93576e-14, No Iterations 1000
diagonal:  Solving for rho, Initial residual = 0, Final residual = 0, No Iterations 0
time step continuity errors : sum local = 1.86692e-16, global = -5.3421e-18, cumulative = -2.5677e-15
PIMPLE: iteration 2
smoothSolver:  Solving for Ux, Initial residual = 4.13043e-05, Final residual = 1.00311e-15, No Iterations 1000
smoothSolver:  Solving for e, Initial residual = 0.00112242, Final residual = 4.33391e-14, No Iterations 1000
smoothSolver:  Solving for p, Initial residual = 0.000199015, Final residual = 1.93718e-14, No Iterations 1000
diagonal:  Solving for rho, Initial residual = 0, Final residual = 0, No Iterations 0
time step continuity errors : sum local = 1.84443e-16, global = -1.79944e-17, cumulative = -2.5857e-15
ExecutionTime = 5.69 s  ClockTime = 6 s

Time = 0.00036

Courant Number mean: 0.0417471 max: 0.0427
diagonal:  Solving for rho, Initial residual = 0, Final residual = 0, No Iterations 0
PIMPLE: iteration 1
smoothSolver:  Solving for Ux, Initial residual = 0.00751393, Final residual = 1.0312e-15, No Iterations 1000
smoothSolver:  Solving for e, Initial residual = 0.00738633, Final residual = 4.21624e-14, No Iterations 1000
smoothSolver:  Solving for p, Initial residual = 0.00748776, Final residual = 1.89049e-14, No Iterations 1000
diagonal:  Solving for rho, Initial residual = 0, Final residual = 0, No Iterations 0
time step continuity errors : sum local = 1.89355e-16, global = -1.75719e-17, cumulative = -2.60327e-15
PIMPLE: iteration 2
smoothSolver:  Solving for Ux, Initial residual = 3.96563e-05, Final residual = 9.44964e-16, No Iterations 2
smoothSolver:  Solving for e, Initial residual = 0.00107045, Final residual = 3.99848e-14, No Iterations 1000
smoothSolver:  Solving for p, Initial residual = 0.000190094, Final residual = 1.81076e-14, No Iterations 1000
diagonal:  Solving for rho, Initial residual = 0, Final residual = 0, No Iterations 0
time step continuity errors : sum local = 1.78953e-16, global = 1.82748e-18, cumulative = -2.60144e-15
ExecutionTime = 5.83 s  ClockTime = 6 s

Time = 0.00037

Courant Number mean: 0.0417199 max: 0.0427
diagonal:  Solving for rho, Initial residual = 0, Final residual = 0, No Iterations 0
PIMPLE: iteration 1
smoothSolver:  Solving for Ux, Initial residual = 0.00731414, Final residual = 9.59834e-16, No Iterations 2
smoothSolver:  Solving for e, Initial residual = 0.00718967, Final residual = 3.86307e-14, No Iterations 1000
smoothSolver:  Solving for p, Initial residual = 0.00727275, Final residual = 1.81918e-14, No Iterations 1000
diagonal:  Solving for rho, Initial residual = 0, Final residual = 0, No Iterations 0
time step continuity errors : sum local = 1.76134e-16, global = -2.1226e-17, cumulative = -2.62267e-15
PIMPLE: iteration 2
smoothSolver:  Solving for Ux, Initial residual = 3.81152e-05, Final residual = 9.088e-16, No Iterations 2
smoothSolver:  Solving for e, Initial residual = 0.00103043, Final residual = 3.98624e-14, No Iterations 1000
smoothSolver:  Solving for p, Initial residual = 0.000182138, Final residual = 1.75815e-14, No Iterations 1000
diagonal:  Solving for rho, Initial residual = 0, Final residual = 0, No Iterations 0
time step continuity errors : sum local = 1.84427e-16, global = -1.68684e-17, cumulative = -2.63954e-15
ExecutionTime = 5.94 s  ClockTime = 6 s

Time = 0.00038

Courant Number mean: 0.0416926 max: 0.0427
diagonal:  Solving for rho, Initial residual = 0, Final residual = 0, No Iterations 0
PIMPLE: iteration 1
smoothSolver:  Solving for Ux, Initial residual = 0.00710927, Final residual = 9.45396e-16, No Iterations 2
smoothSolver:  Solving for e, Initial residual = 0.00698674, Final residual = 3.94248e-14, No Iterations 1000
smoothSolver:  Solving for p, Initial residual = 0.0070741, Final residual = 1.77063e-14, No Iterations 1000
diagonal:  Solving for rho, Initial residual = 0, Final residual = 0, No Iterations 0
time step continuity errors : sum local = 1.85966e-16, global = -2.40364e-17, cumulative = -2.66357e-15
PIMPLE: iteration 2
smoothSolver:  Solving for Ux, Initial residual = 3.66809e-05, Final residual = 9.07665e-16, No Iterations 2
smoothSolver:  Solving for e, Initial residual = 0.000996567, Final residual = 3.96073e-14, No Iterations 1000
smoothSolver:  Solving for p, Initial residual = 0.000176435, Final residual = 1.79965e-14, No Iterations 1000
diagonal:  Solving for rho, Initial residual = 0, Final residual = 0, No Iterations 0
time step continuity errors : sum local = 1.81468e-16, global = -2.45986e-17, cumulative = -2.68817e-15
ExecutionTime = 6.05 s  ClockTime = 6 s

Time = 0.00039

Courant Number mean: 0.0416654 max: 0.0427
diagonal:  Solving for rho, Initial residual = 0, Final residual = 0, No Iterations 0
PIMPLE: iteration 1
smoothSolver:  Solving for Ux, Initial residual = 0.0069253, Final residual = 9.23639e-16, No Iterations 2
smoothSolver:  Solving for e, Initial residual = 0.00680699, Final residual = 3.78009e-14, No Iterations 1000
smoothSolver:  Solving for p, Initial residual = 0.00688699, Final residual = 1.77217e-14, No Iterations 1000
diagonal:  Solving for rho, Initial residual = 0, Final residual = 0, No Iterations 0
time step continuity errors : sum local = 1.83147e-16, global = -1.8413e-17, cumulative = -2.70658e-15
PIMPLE: iteration 2
smoothSolver:  Solving for Ux, Initial residual = 3.53216e-05, Final residual = 9.20539e-16, No Iterations 2
smoothSolver:  Solving for e, Initial residual = 0.000954831, Final residual = 3.70481e-14, No Iterations 1000
smoothSolver:  Solving for p, Initial residual = 0.000169247, Final residual = 1.62478e-14, No Iterations 1000
diagonal:  Solving for rho, Initial residual = 0, Final residual = 0, No Iterations 0
time step continuity errors : sum local = 1.82584e-16, global = -3.33122e-17, cumulative = -2.7399e-15
ExecutionTime = 6.16 s  ClockTime = 6 s

Time = 0.0004

Courant Number mean: 0.0416381 max: 0.0427
diagonal:  Solving for rho, Initial residual = 0, Final residual = 0, No Iterations 0
PIMPLE: iteration 1
smoothSolver:  Solving for Ux, Initial residual = 0.00673782, Final residual = 9.03318e-16, No Iterations 2
smoothSolver:  Solving for e, Initial residual = 0.00662994, Final residual = 3.72035e-14, No Iterations 1000
smoothSolver:  Solving for p, Initial residual = 0.00671288, Final residual = 1.75564e-14, No Iterations 1000
diagonal:  Solving for rho, Initial residual = 0, Final residual = 0, No Iterations 0
time step continuity errors : sum local = 1.89885e-16, global = -2.37532e-17, cumulative = -2.76365e-15
PIMPLE: iteration 2
smoothSolver:  Solving for Ux, Initial residual = 3.40562e-05, Final residual = 8.78116e-16, No Iterations 2
smoothSolver:  Solving for e, Initial residual = 0.000914494, Final residual = 3.61953e-14, No Iterations 1000
smoothSolver:  Solving for p, Initial residual = 0.000161527, Final residual = 1.62986e-14, No Iterations 1000
diagonal:  Solving for rho, Initial residual = 0, Final residual = 0, No Iterations 0
time step continuity errors : sum local = 1.89604e-16, global = -1.41957e-17, cumulative = -2.77784e-15
ExecutionTime = 6.27 s  ClockTime = 6 s

Time = 0.00041

Courant Number mean: 0.0416109 max: 0.0427
diagonal:  Solving for rho, Initial residual = 0, Final residual = 0, No Iterations 0
PIMPLE: iteration 1
smoothSolver:  Solving for Ux, Initial residual = 0.00657785, Final residual = 8.78368e-16, No Iterations 2
smoothSolver:  Solving for e, Initial residual = 0.00647311, Final residual = 3.56739e-14, No Iterations 1000
smoothSolver:  Solving for p, Initial residual = 0.00654275, Final residual = 1.65265e-14, No Iterations 1000
diagonal:  Solving for rho, Initial residual = 0, Final residual = 0, No Iterations 0
time step continuity errors : sum local = 1.86504e-16, global = -2.82497e-17, cumulative = -2.80609e-15
PIMPLE: iteration 2
smoothSolver:  Solving for Ux, Initial residual = 3.28585e-05, Final residual = 8.58152e-16, No Iterations 2
smoothSolver:  Solving for e, Initial residual = 0.000885488, Final residual = 3.5926e-14, No Iterations 1000
smoothSolver:  Solving for p, Initial residual = 0.000156625, Final residual = 1.59435e-14, No Iterations 1000
diagonal:  Solving for rho, Initial residual = 0, Final residual = 0, No Iterations 0
time step continuity errors : sum local = 1.84396e-16, global = -1.77087e-17, cumulative = -2.8238e-15
ExecutionTime = 6.38 s  ClockTime = 6 s

Time = 0.00042

Courant Number mean: 0.0415836 max: 0.0427
diagonal:  Solving for rho, Initial residual = 0, Final residual = 0, No Iterations 0
PIMPLE: iteration 1
smoothSolver:  Solving for Ux, Initial residual = 0.00641416, Final residual = 8.33836e-16, No Iterations 2
smoothSolver:  Solving for e, Initial residual = 0.00631226, Final residual = 3.50053e-14, No Iterations 1000
smoothSolver:  Solving for p, Initial residual = 0.00638256, Final residual = 1.66631e-14, No Iterations 1000
diagonal:  Solving for rho, Initial residual = 0, Final residual = 0, No Iterations 0
time step continuity errors : sum local = 1.87199e-16, global = -2.75458e-17, cumulative = -2.85135e-15
PIMPLE: iteration 2
smoothSolver:  Solving for Ux, Initial residual = 3.17455e-05, Final residual = 8.55371e-16, No Iterations 2
smoothSolver:  Solving for e, Initial residual = 0.000849149, Final residual = 3.4441e-14, No Iterations 1000
smoothSolver:  Solving for p, Initial residual = 0.000150359, Final residual = 1.54673e-14, No Iterations 1000
diagonal:  Solving for rho, Initial residual = 0, Final residual = 0, No Iterations 0
time step continuity errors : sum local = 1.83123e-16, global = -2.34701e-17, cumulative = -2.87482e-15
ExecutionTime = 6.49 s  ClockTime = 6 s

Time = 0.00043

Courant Number mean: 0.0415565 max: 0.0427
diagonal:  Solving for rho, Initial residual = 0, Final residual = 0, No Iterations 0
PIMPLE: iteration 1
smoothSolver:  Solving for Ux, Initial residual = 0.00626585, Final residual = 8.55623e-16, No Iterations 2
smoothSolver:  Solving for e, Initial residual = 0.00616652, Final residual = 3.43426e-14, No Iterations 1000
smoothSolver:  Solving for p, Initial residual = 0.00622861, Final residual = 1.57587e-14, No Iterations 1000
diagonal:  Solving for rho, Initial residual = 0, Final residual = 0, No Iterations 0
time step continuity errors : sum local = 1.86207e-16, global = -1.84099e-17, cumulative = -2.89323e-15
PIMPLE: iteration 2
smoothSolver:  Solving for Ux, Initial residual = 3.06897e-05, Final residual = 7.92892e-16, No Iterations 2
smoothSolver:  Solving for e, Initial residual = 0.000828181, Final residual = 3.38552e-14, No Iterations 1000
smoothSolver:  Solving for p, Initial residual = 0.000146087, Final residual = 1.55932e-14, No Iterations 1000
diagonal:  Solving for rho, Initial residual = 0, Final residual = 0, No Iterations 0
time step continuity errors : sum local = 1.77635e-16, global = -8.99415e-18, cumulative = -2.90222e-15
ExecutionTime = 6.6 s  ClockTime = 7 s

Time = 0.00044

Courant Number mean: 0.0415291 max: 0.0427
diagonal:  Solving for rho, Initial residual = 0, Final residual = 0, No Iterations 0
PIMPLE: iteration 1
smoothSolver:  Solving for Ux, Initial residual = 0.00611817, Final residual = 8.31092e-16, No Iterations 2
smoothSolver:  Solving for e, Initial residual = 0.00601963, Final residual = 3.392e-14, No Iterations 1000
smoothSolver:  Solving for p, Initial residual = 0.0060862, Final residual = 1.58396e-14, No Iterations 1000
diagonal:  Solving for rho, Initial residual = 0, Final residual = 0, No Iterations 0
time step continuity errors : sum local = 1.8901e-16, global = -1.55986e-17, cumulative = -2.91782e-15
PIMPLE: iteration 2
smoothSolver:  Solving for Ux, Initial residual = 2.96968e-05, Final residual = 7.87496e-16, No Iterations 2
smoothSolver:  Solving for e, Initial residual = 0.000800946, Final residual = 3.26811e-14, No Iterations 1000
smoothSolver:  Solving for p, Initial residual = 0.000141474, Final residual = 1.4557e-14, No Iterations 1000
diagonal:  Solving for rho, Initial residual = 0, Final residual = 0, No Iterations 0
time step continuity errors : sum local = 1.98003e-16, global = -2.12197e-17, cumulative = -2.93904e-15
ExecutionTime = 6.71 s  ClockTime = 7 s

Time = 0.00045

Courant Number mean: 0.041502 max: 0.0427
diagonal:  Solving for rho, Initial residual = 0, Final residual = 0, No Iterations 0
PIMPLE: iteration 1
smoothSolver:  Solving for Ux, Initial residual = 0.00598205, Final residual = 7.46876e-16, No Iterations 2
smoothSolver:  Solving for e, Initial residual = 0.00588913, Final residual = 3.27705e-14, No Iterations 1000
smoothSolver:  Solving for p, Initial residual = 0.00594959, Final residual = 1.46473e-14, No Iterations 1000
diagonal:  Solving for rho, Initial residual = 0, Final residual = 0, No Iterations 0
time step continuity errors : sum local = 1.84224e-16, global = -2.57155e-17, cumulative = -2.96476e-15
PIMPLE: iteration 2
smoothSolver:  Solving for Ux, Initial residual = 2.87522e-05, Final residual = 7.586e-16, No Iterations 2
smoothSolver:  Solving for e, Initial residual = 0.000769691, Final residual = 3.27686e-14, No Iterations 1000
smoothSolver:  Solving for p, Initial residual = 0.000135642, Final residual = 1.50926e-14, No Iterations 1000
diagonal:  Solving for rho, Initial residual = 0, Final residual = 0, No Iterations 0
time step continuity errors : sum local = 1.81132e-16, global = -2.17809e-17, cumulative = -2.98654e-15
ExecutionTime = 6.82 s  ClockTime = 7 s

Time = 0.00046

Courant Number mean: 0.0414747 max: 0.0427
diagonal:  Solving for rho, Initial residual = 0, Final residual = 0, No Iterations 0
PIMPLE: iteration 1
smoothSolver:  Solving for Ux, Initial residual = 0.00584729, Final residual = 7.98026e-16, No Iterations 2
smoothSolver:  Solving for e, Initial residual = 0.00575813, Final residual = 3.29036e-14, No Iterations 1000
smoothSolver:  Solving for p, Initial residual = 0.00581929, Final residual = 1.46531e-14, No Iterations 1000
diagonal:  Solving for rho, Initial residual = 0, Final residual = 0, No Iterations 0
time step continuity errors : sum local = 1.81265e-16, global = -2.10774e-17, cumulative = -3.00761e-15
PIMPLE: iteration 2
smoothSolver:  Solving for Ux, Initial residual = 2.78643e-05, Final residual = 7.71006e-16, No Iterations 2
smoothSolver:  Solving for e, Initial residual = 0.00074809, Final residual = 3.19592e-14, No Iterations 1000
smoothSolver:  Solving for p, Initial residual = 0.000131862, Final residual = 1.45603e-14, No Iterations 1000
diagonal:  Solving for rho, Initial residual = 0, Final residual = 0, No Iterations 0
time step continuity errors : sum local = 1.89837e-16, global = -2.57144e-17, cumulative = -3.03333e-15
ExecutionTime = 6.93 s  ClockTime = 7 s

Time = 0.00047

Courant Number mean: 0.0414475 max: 0.0427
diagonal:  Solving for rho, Initial residual = 0, Final residual = 0, No Iterations 0
PIMPLE: iteration 1
smoothSolver:  Solving for Ux, Initial residual = 0.0057232, Final residual = 7.60478e-16, No Iterations 2
smoothSolver:  Solving for e, Initial residual = 0.00563879, Final residual = 3.0806e-14, No Iterations 1000
smoothSolver:  Solving for p, Initial residual = 0.00569379, Final residual = 1.46151e-14, No Iterations 1000
diagonal:  Solving for rho, Initial residual = 0, Final residual = 0, No Iterations 0
time step continuity errors : sum local = 1.84349e-16, global = -1.34889e-17, cumulative = -3.04682e-15
PIMPLE: iteration 2
smoothSolver:  Solving for Ux, Initial residual = 2.70174e-05, Final residual = 7.55857e-16, No Iterations 2
smoothSolver:  Solving for e, Initial residual = 0.000724077, Final residual = 3.17586e-14, No Iterations 1000
smoothSolver:  Solving for p, Initial residual = 0.000127783, Final residual = 1.44357e-14, No Iterations 1000
diagonal:  Solving for rho, Initial residual = 0, Final residual = 0, No Iterations 0
time step continuity errors : sum local = 1.8196e-16, global = -2.1498e-17, cumulative = -3.06832e-15
ExecutionTime = 7.04 s  ClockTime = 7 s

Time = 0.00048

Courant Number mean: 0.0414203 max: 0.0427
diagonal:  Solving for rho, Initial residual = 0, Final residual = 0, No Iterations 0
PIMPLE: iteration 1
smoothSolver:  Solving for Ux, Initial residual = 0.0056007, Final residual = 7.10624e-16, No Iterations 2
smoothSolver:  Solving for e, Initial residual = 0.00551846, Final residual = 3.14807e-14, No Iterations 1000
smoothSolver:  Solving for p, Initial residual = 0.00557291, Final residual = 1.43084e-14, No Iterations 1000
diagonal:  Solving for rho, Initial residual = 0, Final residual = 0, No Iterations 0
time step continuity errors : sum local = 1.8701e-16, global = -1.16618e-17, cumulative = -3.07998e-15
PIMPLE: iteration 2
smoothSolver:  Solving for Ux, Initial residual = 2.62201e-05, Final residual = 7.82599e-16, No Iterations 2
smoothSolver:  Solving for e, Initial residual = 0.000701807, Final residual = 3.15666e-14, No Iterations 1000
smoothSolver:  Solving for p, Initial residual = 0.000123406, Final residual = 1.41914e-14, No Iterations 1000
diagonal:  Solving for rho, Initial residual = 0, Final residual = 0, No Iterations 0
time step continuity errors : sum local = 1.87432e-16, global = -1.20833e-17, cumulative = -3.09206e-15
ExecutionTime = 7.15 s  ClockTime = 7 s

Time = 0.00049

Courant Number mean: 0.0413931 max: 0.0427
diagonal:  Solving for rho, Initial residual = 0, Final residual = 0, No Iterations 0
PIMPLE: iteration 1
smoothSolver:  Solving for Ux, Initial residual = 0.00548799, Final residual = 7.26765e-16, No Iterations 2
smoothSolver:  Solving for e, Initial residual = 0.00540756, Final residual = 3.10519e-14, No Iterations 1000
smoothSolver:  Solving for p, Initial residual = 0.00545913, Final residual = 1.43674e-14, No Iterations 1000
diagonal:  Solving for rho, Initial residual = 0, Final residual = 0, No Iterations 0
time step continuity errors : sum local = 1.85316e-16, global = -6.60339e-18, cumulative = -3.09866e-15
PIMPLE: iteration 2
smoothSolver:  Solving for Ux, Initial residual = 2.54599e-05, Final residual = 6.79848e-16, No Iterations 2
smoothSolver:  Solving for e, Initial residual = 0.000684145, Final residual = 3.01546e-14, No Iterations 1000
smoothSolver:  Solving for p, Initial residual = 0.000120468, Final residual = 1.36162e-14, No Iterations 1000
diagonal:  Solving for rho, Initial residual = 0, Final residual = 0, No Iterations 0
time step continuity errors : sum local = 1.80118e-16, global = -1.85457e-17, cumulative = -3.11721e-15
ExecutionTime = 7.25 s  ClockTime = 7 s

Time = 0.0005

Courant Number mean: 0.0413658 max: 0.0427
diagonal:  Solving for rho, Initial residual = 0, Final residual = 0, No Iterations 0
PIMPLE: iteration 1
smoothSolver:  Solving for Ux, Initial residual = 0.0053761, Final residual = 7.35769e-16, No Iterations 2
smoothSolver:  Solving for e, Initial residual = 0.0052979, Final residual = 3.10844e-14, No Iterations 1000
smoothSolver:  Solving for p, Initial residual = 0.00534721, Final residual = 1.42901e-14, No Iterations 1000
diagonal:  Solving for rho, Initial residual = 0, Final residual = 0, No Iterations 0
time step continuity errors : sum local = 2.01465e-16, global = -1.88259e-17, cumulative = -3.13604e-15
PIMPLE: iteration 2
smoothSolver:  Solving for Ux, Initial residual = 2.47384e-05, Final residual = 7.10742e-16, No Iterations 2
smoothSolver:  Solving for e, Initial residual = 0.000661357, Final residual = 2.97705e-14, No Iterations 1000
smoothSolver:  Solving for p, Initial residual = 0.000116591, Final residual = 1.31847e-14, No Iterations 1000
diagonal:  Solving for rho, Initial residual = 0, Final residual = 0, No Iterations 0
time step continuity errors : sum local = 1.80672e-16, global = -2.24787e-17, cumulative = -3.15851e-15
ExecutionTime = 7.37 s  ClockTime = 7 s

Time = 0.00051

Courant Number mean: 0.0413387 max: 0.0427
diagonal:  Solving for rho, Initial residual = 0, Final residual = 0, No Iterations 0
PIMPLE: iteration 1
smoothSolver:  Solving for Ux, Initial residual = 0.00527196, Final residual = 7.07578e-16, No Iterations 2
smoothSolver:  Solving for e, Initial residual = 0.00519604, Final residual = 2.91591e-14, No Iterations 1000
smoothSolver:  Solving for p, Initial residual = 0.00524453, Final residual = 1.32279e-14, No Iterations 1000
diagonal:  Solving for rho, Initial residual = 0, Final residual = 0, No Iterations 0
time step continuity errors : sum local = 1.78838e-16, global = -5.47894e-18, cumulative = -3.16399e-15
PIMPLE: iteration 2
smoothSolver:  Solving for Ux, Initial residual = 2.40494e-05, Final residual = 6.84266e-16, No Iterations 2
smoothSolver:  Solving for e, Initial residual = 0.000644206, Final residual = 2.9479e-14, No Iterations 1000
smoothSolver:  Solving for p, Initial residual = 0.000113194, Final residual = 1.30331e-14, No Iterations 1000
diagonal:  Solving for rho, Initial residual = 0, Final residual = 0, No Iterations 0
time step continuity errors : sum local = 1.77153e-16, global = -1.55939e-17, cumulative = -3.17959e-15
ExecutionTime = 7.47 s  ClockTime = 8 s

Time = 0.00052

Courant Number mean: 0.0413114 max: 0.0427
diagonal:  Solving for rho, Initial residual = 0, Final residual = 0, No Iterations 0
PIMPLE: iteration 1
smoothSolver:  Solving for Ux, Initial residual = 0.00516856, Final residual = 6.83469e-16, No Iterations 2
smoothSolver:  Solving for e, Initial residual = 0.00509559, Final residual = 2.8364e-14, No Iterations 1000
smoothSolver:  Solving for p, Initial residual = 0.00514186, Final residual = 1.3373e-14, No Iterations 1000
diagonal:  Solving for rho, Initial residual = 0, Final residual = 0, No Iterations 0
time step continuity errors : sum local = 1.80797e-16, global = -1.89648e-17, cumulative = -3.19855e-15
PIMPLE: iteration 2
smoothSolver:  Solving for Ux, Initial residual = 2.3397e-05, Final residual = 6.62798e-16, No Iterations 2
smoothSolver:  Solving for e, Initial residual = 0.000627009, Final residual = 2.84115e-14, No Iterations 1000
smoothSolver:  Solving for p, Initial residual = 0.000110319, Final residual = 1.33524e-14, No Iterations 1000
diagonal:  Solving for rho, Initial residual = 0, Final residual = 0, No Iterations 0
time step continuity errors : sum local = 1.80938e-16, global = -1.34861e-17, cumulative = -3.21204e-15
ExecutionTime = 7.58 s  ClockTime = 8 s

Time = 0.00053

Courant Number mean: 0.0412843 max: 0.0427
diagonal:  Solving for rho, Initial residual = 0, Final residual = 0, No Iterations 0
PIMPLE: iteration 1
smoothSolver:  Solving for Ux, Initial residual = 0.00507201, Final residual = 6.41771e-16, No Iterations 2
smoothSolver:  Solving for e, Initial residual = 0.00500215, Final residual = 2.78542e-14, No Iterations 1000
smoothSolver:  Solving for p, Initial residual = 0.00504674, Final residual = 1.359e-14, No Iterations 1000
diagonal:  Solving for rho, Initial residual = 0, Final residual = 0, No Iterations 0
time step continuity errors : sum local = 1.83599e-16, global = -4.07374e-18, cumulative = -3.21611e-15
PIMPLE: iteration 2
smoothSolver:  Solving for Ux, Initial residual = 2.27705e-05, Final residual = 6.32743e-16, No Iterations 2
smoothSolver:  Solving for e, Initial residual = 0.000606309, Final residual = 2.83226e-14, No Iterations 1000
smoothSolver:  Solving for p, Initial residual = 0.00010679, Final residual = 1.22504e-14, No Iterations 1000
diagonal:  Solving for rho, Initial residual = 0, Final residual = 0, No Iterations 0
time step continuity errors : sum local = 1.84723e-16, global = -1.50307e-17, cumulative = -3.23114e-15
ExecutionTime = 7.69 s  ClockTime = 8 s

Time = 0.00054

Courant Number mean: 0.041257 max: 0.0427
diagonal:  Solving for rho, Initial residual = 0, Final residual = 0, No Iterations 0
PIMPLE: iteration 1
smoothSolver:  Solving for Ux, Initial residual = 0.00497687, Final residual = 6.28915e-16, No Iterations 2
smoothSolver:  Solving for e, Initial residual = 0.00490918, Final residual = 2.72387e-14, No Iterations 1000
smoothSolver:  Solving for p, Initial residual = 0.00495108, Final residual = 1.27615e-14, No Iterations 1000
diagonal:  Solving for rho, Initial residual = 0, Final residual = 0, No Iterations 0
time step continuity errors : sum local = 1.77832e-16, global = -8.98994e-18, cumulative = -3.24013e-15
PIMPLE: iteration 2
smoothSolver:  Solving for Ux, Initial residual = 2.21762e-05, Final residual = 6.45748e-16, No Iterations 2
smoothSolver:  Solving for e, Initial residual = 0.000594118, Final residual = 2.73189e-14, No Iterations 1000
smoothSolver:  Solving for p, Initial residual = 0.000104319, Final residual = 1.2128e-14, No Iterations 1000
diagonal:  Solving for rho, Initial residual = 0, Final residual = 0, No Iterations 0
time step continuity errors : sum local = 1.80782e-16, global = -2.17725e-17, cumulative = -3.26191e-15
ExecutionTime = 7.8 s  ClockTime = 8 s

Time = 0.00055

Courant Number mean: 0.0412299 max: 0.0427
diagonal:  Solving for rho, Initial residual = 0, Final residual = 0, No Iterations 0
PIMPLE: iteration 1
smoothSolver:  Solving for Ux, Initial residual = 0.00488789, Final residual = 6.56398e-16, No Iterations 2
smoothSolver:  Solving for e, Initial residual = 0.00482191, Final residual = 2.77751e-14, No Iterations 1000
smoothSolver:  Solving for p, Initial residual = 0.00486359, Final residual = 1.20066e-14, No Iterations 1000
diagonal:  Solving for rho, Initial residual = 0, Final residual = 0, No Iterations 0
time step continuity errors : sum local = 1.84145e-16, global = -4.07339e-18, cumulative = -3.26598e-15
PIMPLE: iteration 2
smoothSolver:  Solving for Ux, Initial residual = 2.16071e-05, Final residual = 6.29845e-16, No Iterations 2
smoothSolver:  Solving for e, Initial residual = 0.000578428, Final residual = 2.60841e-14, No Iterations 1000
smoothSolver:  Solving for p, Initial residual = 0.000101686, Final residual = 1.2143e-14, No Iterations 1000
diagonal:  Solving for rho, Initial residual = 0, Final residual = 0, No Iterations 0
time step continuity errors : sum local = 1.83162e-16, global = -8.98956e-18, cumulative = -3.27497e-15
ExecutionTime = 7.91 s  ClockTime = 8 s

Time = 0.00056

Courant Number mean: 0.0412026 max: 0.0427
diagonal:  Solving for rho, Initial residual = 0, Final residual = 0, No Iterations 0
PIMPLE: iteration 1
smoothSolver:  Solving for Ux, Initial residual = 0.00480019, Final residual = 6.4604e-16, No Iterations 2
smoothSolver:  Solving for e, Initial residual = 0.00473587, Final residual = 2.71266e-14, No Iterations 1000
smoothSolver:  Solving for p, Initial residual = 0.00477534, Final residual = 1.23403e-14, No Iterations 1000
diagonal:  Solving for rho, Initial residual = 0, Final residual = 0, No Iterations 0
time step continuity errors : sum local = 1.8484e-16, global = -1.23601e-17, cumulative = -3.28733e-15
PIMPLE: iteration 2
smoothSolver:  Solving for Ux, Initial residual = 2.10631e-05, Final residual = 6.01805e-16, No Iterations 2
smoothSolver:  Solving for e, Initial residual = 0.000561355, Final residual = 2.54965e-14, No Iterations 1000
smoothSolver:  Solving for p, Initial residual = 9.83847e-05, Final residual = 1.22502e-14, No Iterations 1000
diagonal:  Solving for rho, Initial residual = 0, Final residual = 0, No Iterations 0
time step continuity errors : sum local = 1.84699e-16, global = -1.86806e-17, cumulative = -3.30601e-15
ExecutionTime = 8.02 s  ClockTime = 8 s

Time = 0.00057

Courant Number mean: 0.0411755 max: 0.0427
diagonal:  Solving for rho, Initial residual = 0, Final residual = 0, No Iterations 0
PIMPLE: iteration 1
smoothSolver:  Solving for Ux, Initial residual = 0.00471714, Final residual = 6.25866e-16, No Iterations 2
smoothSolver:  Solving for e, Initial residual = 0.00465499, Final residual = 2.6957e-14, No Iterations 1000
smoothSolver:  Solving for p, Initial residual = 0.00469418, Final residual = 1.25422e-14, No Iterations 1000
diagonal:  Solving for rho, Initial residual = 0, Final residual = 0, No Iterations 0
time step continuity errors : sum local = 1.82866e-16, global = -1.4045e-17, cumulative = -3.32005e-15
PIMPLE: iteration 2
smoothSolver:  Solving for Ux, Initial residual = 2.0542e-05, Final residual = 6.1582e-16, No Iterations 2
smoothSolver:  Solving for e, Initial residual = 0.00055016, Final residual = 2.59478e-14, No Iterations 1000
smoothSolver:  Solving for p, Initial residual = 9.65372e-05, Final residual = 1.17891e-14, No Iterations 1000
diagonal:  Solving for rho, Initial residual = 0, Final residual = 0, No Iterations 0
time step continuity errors : sum local = 1.79916e-16, global = -1.5309e-17, cumulative = -3.33536e-15
ExecutionTime = 8.13 s  ClockTime = 8 s

Time = 0.00058

Courant Number mean: 0.0411483 max: 0.0427
diagonal:  Solving for rho, Initial residual = 0, Final residual = 0, No Iterations 0
PIMPLE: iteration 1
smoothSolver:  Solving for Ux, Initial residual = 0.00463561, Final residual = 6.05287e-16, No Iterations 2
smoothSolver:  Solving for e, Initial residual = 0.00457523, Final residual = 2.62485e-14, No Iterations 1000
smoothSolver:  Solving for p, Initial residual = 0.0046138, Final residual = 1.14663e-14, No Iterations 1000
diagonal:  Solving for rho, Initial residual = 0, Final residual = 0, No Iterations 0
time step continuity errors : sum local = 1.78925e-16, global = -2.07857e-17, cumulative = -3.35615e-15
PIMPLE: iteration 2
smoothSolver:  Solving for Ux, Initial residual = 2.00447e-05, Final residual = 6.157e-16, No Iterations 2
smoothSolver:  Solving for e, Initial residual = 0.000535193, Final residual = 2.56955e-14, No Iterations 1000
smoothSolver:  Solving for p, Initial residual = 9.40169e-05, Final residual = 1.16349e-14, No Iterations 1000
diagonal:  Solving for rho, Initial residual = 0, Final residual = 0, No Iterations 0
time step continuity errors : sum local = 1.75836e-16, global = -2.02239e-17, cumulative = -3.37637e-15
ExecutionTime = 8.24 s  ClockTime = 8 s

Time = 0.00059

Courant Number mean: 0.0411211 max: 0.0427
diagonal:  Solving for rho, Initial residual = 0, Final residual = 0, No Iterations 0
PIMPLE: iteration 1
smoothSolver:  Solving for Ux, Initial residual = 0.00455792, Final residual = 5.89929e-16, No Iterations 2
smoothSolver:  Solving for e, Initial residual = 0.00450032, Final residual = 2.58042e-14, No Iterations 1000
smoothSolver:  Solving for p, Initial residual = 0.00453705, Final residual = 1.19989e-14, No Iterations 1000
diagonal:  Solving for rho, Initial residual = 0, Final residual = 0, No Iterations 0
time step continuity errors : sum local = 1.87625e-16, global = -2.21892e-17, cumulative = -3.39856e-15
PIMPLE: iteration 2
smoothSolver:  Solving for Ux, Initial residual = 1.95658e-05, Final residual = 5.96229e-16, No Iterations 2
smoothSolver:  Solving for e, Initial residual = 0.000522177, Final residual = 2.68163e-14, No Iterations 1000
smoothSolver:  Solving for p, Initial residual = 9.14489e-05, Final residual = 1.07362e-14, No Iterations 1000
diagonal:  Solving for rho, Initial residual = 0, Final residual = 0, No Iterations 0
time step continuity errors : sum local = 1.89451e-16, global = -1.16563e-17, cumulative = -3.41022e-15
ExecutionTime = 8.35 s  ClockTime = 8 s

Time = 0.0006

Courant Number mean: 0.0410939 max: 0.0427
diagonal:  Solving for rho, Initial residual = 0, Final residual = 0, No Iterations 0
PIMPLE: iteration 1
smoothSolver:  Solving for Ux, Initial residual = 0.00448235, Final residual = 5.94411e-16, No Iterations 2
smoothSolver:  Solving for e, Initial residual = 0.00442605, Final residual = 2.5584e-14, No Iterations 1000
smoothSolver:  Solving for p, Initial residual = 0.00446219, Final residual = 1.10733e-14, No Iterations 1000
diagonal:  Solving for rho, Initial residual = 0, Final residual = 0, No Iterations 0
time step continuity errors : sum local = 1.84808e-16, global = -8.70678e-18, cumulative = -3.41892e-15
PIMPLE: iteration 2
smoothSolver:  Solving for Ux, Initial residual = 1.91086e-05, Final residual = 5.7565e-16, No Iterations 2
smoothSolver:  Solving for e, Initial residual = 0.000511506, Final residual = 2.46933e-14, No Iterations 1000
smoothSolver:  Solving for p, Initial residual = 8.96963e-05, Final residual = 1.09068e-14, No Iterations 1000
diagonal:  Solving for rho, Initial residual = 0, Final residual = 0, No Iterations 0
time step continuity errors : sum local = 1.83264e-16, global = -1.72731e-17, cumulative = -3.4362e-15
ExecutionTime = 8.46 s  ClockTime = 9 s

Time = 0.00061

Courant Number mean: 0.0410667 max: 0.0427
diagonal:  Solving for rho, Initial residual = 0, Final residual = 0, No Iterations 0
PIMPLE: iteration 1
smoothSolver:  Solving for Ux, Initial residual = 0.00440995, Final residual = 5.59746e-16, No Iterations 2
smoothSolver:  Solving for e, Initial residual = 0.00435543, Final residual = 2.52906e-14, No Iterations 1000
smoothSolver:  Solving for p, Initial residual = 0.00439008, Final residual = 1.10873e-14, No Iterations 1000
diagonal:  Solving for rho, Initial residual = 0, Final residual = 0, No Iterations 0
time step continuity errors : sum local = 1.82835e-16, global = -5.61704e-18, cumulative = -3.44181e-15
PIMPLE: iteration 2
smoothSolver:  Solving for Ux, Initial residual = 1.8669e-05, Final residual = 5.69465e-16, No Iterations 2
smoothSolver:  Solving for e, Initial residual = 0.000497629, Final residual = 2.49417e-14, No Iterations 1000
smoothSolver:  Solving for p, Initial residual = 8.73528e-05, Final residual = 1.12681e-14, No Iterations 1000
diagonal:  Solving for rho, Initial residual = 0, Final residual = 0, No Iterations 0
time step continuity errors : sum local = 1.93086e-16, global = -9.68939e-18, cumulative = -3.4515e-15
ExecutionTime = 8.57 s  ClockTime = 9 s

Time = 0.00062

Courant Number mean: 0.0410395 max: 0.0427
diagonal:  Solving for rho, Initial residual = 0, Final residual = 0, No Iterations 0
PIMPLE: iteration 1
smoothSolver:  Solving for Ux, Initial residual = 0.0043397, Final residual = 5.82145e-16, No Iterations 2
smoothSolver:  Solving for e, Initial residual = 0.00428619, Final residual = 2.41135e-14, No Iterations 1000
smoothSolver:  Solving for p, Initial residual = 0.00431993, Final residual = 1.10375e-14, No Iterations 1000
diagonal:  Solving for rho, Initial residual = 0, Final residual = 0, No Iterations 0
time step continuity errors : sum local = 1.88022e-16, global = -1.92375e-17, cumulative = -3.47074e-15
PIMPLE: iteration 2
smoothSolver:  Solving for Ux, Initial residual = 1.82466e-05, Final residual = 5.42513e-16, No Iterations 2
smoothSolver:  Solving for e, Initial residual = 0.000487572, Final residual = 2.41248e-14, No Iterations 1000
smoothSolver:  Solving for p, Initial residual = 8.53431e-05, Final residual = 1.07336e-14, No Iterations 1000
diagonal:  Solving for rho, Initial residual = 0, Final residual = 0, No Iterations 0
time step continuity errors : sum local = 1.87461e-16, global = -1.55866e-17, cumulative = -3.48633e-15
[...]
smoothSolver:  Solving for p, Initial residual = 0.00307235, Final residual = 7.87608e-15, No Iterations 1000
diagonal:  Solving for rho, Initial residual = 0, Final residual = 0, No Iterations 0
time step continuity errors : sum local = 1.92769e-16, global = 1.56228e-17, cumulative = -1.32498e-14
PIMPLE: iteration 2
smoothSolver:  Solving for Ux, Initial residual = 4.47265e-06, Final residual = 2.10233e-17, No Iterations 2
smoothSolver:  Solving for e, Initial residual = 0.000123795, Final residual = 2.06134e-14, No Iterations 1000
smoothSolver:  Solving for p, Initial residual = 2.10225e-05, Final residual = 7.8886e-15, No Iterations 1000
diagonal:  Solving for rho, Initial residual = 0, Final residual = 0, No Iterations 0
time step continuity errors : sum local = 1.98992e-16, global = -1.97271e-17, cumulative = -1.32695e-14
ExecutionTime = 165.08 s  ClockTime = 168 s

Time = 0.01486

Courant Number mean: 0.00238352 max: 0.0426971
diagonal:  Solving for rho, Initial residual = 0, Final residual = 0, No Iterations 0
PIMPLE: iteration 1
smoothSolver:  Solving for Ux, Initial residual = 0.00310105, Final residual = 1.88517e-17, No Iterations 2
smoothSolver:  Solving for e, Initial residual = 0.00309788, Final residual = 2.16299e-14, No Iterations 1000
smoothSolver:  Solving for p, Initial residual = 0.00310545, Final residual = 7.88444e-15, No Iterations 1000
diagonal:  Solving for rho, Initial residual = 0, Final residual = 0, No Iterations 0
time step continuity errors : sum local = 1.98719e-16, global = 8.07586e-18, cumulative = -1.32614e-14
PIMPLE: iteration 2
smoothSolver:  Solving for Ux, Initial residual = 4.5194e-06, Final residual = 1.66687e-17, No Iterations 2
smoothSolver:  Solving for e, Initial residual = 0.00012519, Final residual = 2.06188e-14, No Iterations 1000
smoothSolver:  Solving for p, Initial residual = 2.12651e-05, Final residual = 7.66608e-15, No Iterations 1000
diagonal:  Solving for rho, Initial residual = 0, Final residual = 0, No Iterations 0
time step continuity errors : sum local = 1.98587e-16, global = -2.93908e-17, cumulative = -1.32908e-14
ExecutionTime = 165.19 s  ClockTime = 168 s

Time = 0.01487

Courant Number mean: 0.00235641 max: 0.0426968
diagonal:  Solving for rho, Initial residual = 0, Final residual = 0, No Iterations 0
PIMPLE: iteration 1
smoothSolver:  Solving for Ux, Initial residual = 0.00313445, Final residual = 1.84916e-17, No Iterations 2
smoothSolver:  Solving for e, Initial residual = 0.00313161, Final residual = 2.05547e-14, No Iterations 1000
smoothSolver:  Solving for p, Initial residual = 0.00313931, Final residual = 8.22643e-15, No Iterations 1000
diagonal:  Solving for rho, Initial residual = 0, Final residual = 0, No Iterations 0
time step continuity errors : sum local = 1.8865e-16, global = 9.3994e-18, cumulative = -1.32814e-14
PIMPLE: iteration 2
smoothSolver:  Solving for Ux, Initial residual = 4.56721e-06, Final residual = 1.73719e-17, No Iterations 2
smoothSolver:  Solving for e, Initial residual = 0.000126493, Final residual = 2.09097e-14, No Iterations 1000
smoothSolver:  Solving for p, Initial residual = 2.14923e-05, Final residual = 8.12661e-15, No Iterations 1000
diagonal:  Solving for rho, Initial residual = 0, Final residual = 0, No Iterations 0
time step continuity errors : sum local = 2.00962e-16, global = -9.53178e-18, cumulative = -1.32909e-14
ExecutionTime = 165.31 s  ClockTime = 168 s

Time = 0.01488

Courant Number mean: 0.0023293 max: 0.0426965
diagonal:  Solving for rho, Initial residual = 0, Final residual = 0, No Iterations 0
PIMPLE: iteration 1
smoothSolver:  Solving for Ux, Initial residual = 0.00316864, Final residual = 1.69892e-17, No Iterations 2
smoothSolver:  Solving for e, Initial residual = 0.00316616, Final residual = 2.07116e-14, No Iterations 1000
smoothSolver:  Solving for p, Initial residual = 0.00317399, Final residual = 8.17888e-15, No Iterations 1000
diagonal:  Solving for rho, Initial residual = 0, Final residual = 0, No Iterations 0
time step continuity errors : sum local = 1.93805e-16, global = 2.91237e-18, cumulative = -1.3288e-14
PIMPLE: iteration 2
smoothSolver:  Solving for Ux, Initial residual = 4.61597e-06, Final residual = 1.7622e-17, No Iterations 2
smoothSolver:  Solving for e, Initial residual = 0.000127913, Final residual = 2.12529e-14, No Iterations 1000
smoothSolver:  Solving for p, Initial residual = 2.17241e-05, Final residual = 8.14723e-15, No Iterations 1000
diagonal:  Solving for rho, Initial residual = 0, Final residual = 0, No Iterations 0
time step continuity errors : sum local = 2.02277e-16, global = -2.17104e-17, cumulative = -1.33097e-14
ExecutionTime = 165.43 s  ClockTime = 168 s

Time = 0.01489

Courant Number mean: 0.0023022 max: 0.0426961
diagonal:  Solving for rho, Initial residual = 0, Final residual = 0, No Iterations 0
PIMPLE: iteration 1
smoothSolver:  Solving for Ux, Initial residual = 0.00320355, Final residual = 1.60377e-17, No Iterations 2
smoothSolver:  Solving for e, Initial residual = 0.0032015, Final residual = 2.13686e-14, No Iterations 1000
smoothSolver:  Solving for p, Initial residual = 0.00320947, Final residual = 8.39207e-15, No Iterations 1000
diagonal:  Solving for rho, Initial residual = 0, Final residual = 0, No Iterations 0
time step continuity errors : sum local = 1.98828e-16, global = -5.29501e-18, cumulative = -1.3315e-14
PIMPLE: iteration 2
smoothSolver:  Solving for Ux, Initial residual = 4.66577e-06, Final residual = 2.0015e-17, No Iterations 2
smoothSolver:  Solving for e, Initial residual = 0.000129377, Final residual = 2.08531e-14, No Iterations 1000
smoothSolver:  Solving for p, Initial residual = 2.19787e-05, Final residual = 8.24831e-15, No Iterations 1000
diagonal:  Solving for rho, Initial residual = 0, Final residual = 0, No Iterations 0
time step continuity errors : sum local = 2.09285e-16, global = -2.79312e-17, cumulative = -1.3343e-14
ExecutionTime = 165.54 s  ClockTime = 168 s

Time = 0.0149

Courant Number mean: 0.00227509 max: 0.0426957
diagonal:  Solving for rho, Initial residual = 0, Final residual = 0, No Iterations 0
PIMPLE: iteration 1
smoothSolver:  Solving for Ux, Initial residual = 0.0032393, Final residual = 1.79485e-17, No Iterations 2
smoothSolver:  Solving for e, Initial residual = 0.00323773, Final residual = 2.08782e-14, No Iterations 1000
smoothSolver:  Solving for p, Initial residual = 0.00324582, Final residual = 8.2155e-15, No Iterations 1000
diagonal:  Solving for rho, Initial residual = 0, Final residual = 0, No Iterations 0
time step continuity errors : sum local = 1.93922e-16, global = 1.01925e-17, cumulative = -1.33328e-14
PIMPLE: iteration 2
smoothSolver:  Solving for Ux, Initial residual = 4.71663e-06, Final residual = 2.07644e-17, No Iterations 2
smoothSolver:  Solving for e, Initial residual = 0.000130745, Final residual = 2.17168e-14, No Iterations 1000
smoothSolver:  Solving for p, Initial residual = 2.22166e-05, Final residual = 8.42989e-15, No Iterations 1000
diagonal:  Solving for rho, Initial residual = 0, Final residual = 0, No Iterations 0
time step continuity errors : sum local = 1.9882e-16, global = -1.37665e-17, cumulative = -1.33465e-14
ExecutionTime = 165.64 s  ClockTime = 168 s

Time = 0.01491

Courant Number mean: 0.002248 max: 0.0426953
diagonal:  Solving for rho, Initial residual = 0, Final residual = 0, No Iterations 0
PIMPLE: iteration 1
smoothSolver:  Solving for Ux, Initial residual = 0.00327582, Final residual = 1.93276e-17, No Iterations 2
smoothSolver:  Solving for e, Initial residual = 0.00327479, Final residual = 2.20148e-14, No Iterations 1000
smoothSolver:  Solving for p, Initial residual = 0.00328304, Final residual = 8.21728e-15, No Iterations 1000
diagonal:  Solving for rho, Initial residual = 0, Final residual = 0, No Iterations 0
time step continuity errors : sum local = 2.00003e-16, global = -8.33897e-18, cumulative = -1.33549e-14
PIMPLE: iteration 2
smoothSolver:  Solving for Ux, Initial residual = 4.76852e-06, Final residual = 2.03897e-17, No Iterations 2
smoothSolver:  Solving for e, Initial residual = 0.00013233, Final residual = 2.10933e-14, No Iterations 1000
smoothSolver:  Solving for p, Initial residual = 2.24766e-05, Final residual = 8.6532e-15, No Iterations 1000
diagonal:  Solving for rho, Initial residual = 0, Final residual = 0, No Iterations 0
time step continuity errors : sum local = 1.96561e-16, global = -1.68103e-17, cumulative = -1.33717e-14
ExecutionTime = 165.75 s  ClockTime = 168 s

Time = 0.01492

Courant Number mean: 0.0022209 max: 0.0426948
diagonal:  Solving for rho, Initial residual = 0, Final residual = 0, No Iterations 0
PIMPLE: iteration 1
smoothSolver:  Solving for Ux, Initial residual = 0.00331322, Final residual = 1.50605e-17, No Iterations 2
smoothSolver:  Solving for e, Initial residual = 0.00331282, Final residual = 2.13973e-14, No Iterations 1000
smoothSolver:  Solving for p, Initial residual = 0.00332121, Final residual = 8.60694e-15, No Iterations 1000
diagonal:  Solving for rho, Initial residual = 0, Final residual = 0, No Iterations 0
time step continuity errors : sum local = 1.91127e-16, global = 2.22364e-17, cumulative = -1.33495e-14
PIMPLE: iteration 2
smoothSolver:  Solving for Ux, Initial residual = 4.82157e-06, Final residual = 1.67287e-17, No Iterations 2
smoothSolver:  Solving for e, Initial residual = 0.00013387, Final residual = 2.22919e-14, No Iterations 1000
smoothSolver:  Solving for p, Initial residual = 2.2744e-05, Final residual = 8.84646e-15, No Iterations 1000
diagonal:  Solving for rho, Initial residual = 0, Final residual = 0, No Iterations 0
time step continuity errors : sum local = 1.92847e-16, global = -1.68096e-17, cumulative = -1.33663e-14
ExecutionTime = 165.86 s  ClockTime = 168 s

Time = 0.01493

Courant Number mean: 0.00219381 max: 0.0426943
diagonal:  Solving for rho, Initial residual = 0, Final residual = 0, No Iterations 0
PIMPLE: iteration 1
smoothSolver:  Solving for Ux, Initial residual = 0.00335146, Final residual = 1.82529e-17, No Iterations 2
smoothSolver:  Solving for e, Initial residual = 0.00335175, Final residual = 2.16576e-14, No Iterations 1000
smoothSolver:  Solving for p, Initial residual = 0.00336029, Final residual = 8.51441e-15, No Iterations 1000
diagonal:  Solving for rho, Initial residual = 0, Final residual = 0, No Iterations 0
time step continuity errors : sum local = 2.02237e-16, global = 9.52949e-18, cumulative = -1.33567e-14
PIMPLE: iteration 2
smoothSolver:  Solving for Ux, Initial residual = 4.87563e-06, Final residual = 1.79071e-17, No Iterations 2
smoothSolver:  Solving for e, Initial residual = 0.000135358, Final residual = 2.24639e-14, No Iterations 1000
smoothSolver:  Solving for p, Initial residual = 2.2995e-05, Final residual = 8.12931e-15, No Iterations 1000
diagonal:  Solving for rho, Initial residual = 0, Final residual = 0, No Iterations 0
time step continuity errors : sum local = 2.00649e-16, global = -1.58825e-17, cumulative = -1.33726e-14
ExecutionTime = 165.98 s  ClockTime = 169 s

Time = 0.01494

Courant Number mean: 0.00216673 max: 0.0426937
diagonal:  Solving for rho, Initial residual = 0, Final residual = 0, No Iterations 0
PIMPLE: iteration 1
smoothSolver:  Solving for Ux, Initial residual = 0.00339059, Final residual = 1.7648e-17, No Iterations 2
smoothSolver:  Solving for e, Initial residual = 0.00339171, Final residual = 2.22907e-14, No Iterations 1000
smoothSolver:  Solving for p, Initial residual = 0.00340041, Final residual = 8.44621e-15, No Iterations 1000
diagonal:  Solving for rho, Initial residual = 0, Final residual = 0, No Iterations 0
time step continuity errors : sum local = 1.95744e-16, global = 9.26441e-19, cumulative = -1.33717e-14
PIMPLE: iteration 2
smoothSolver:  Solving for Ux, Initial residual = 4.93097e-06, Final residual = 1.82473e-17, No Iterations 2
smoothSolver:  Solving for e, Initial residual = 0.00013708, Final residual = 2.30928e-14, No Iterations 1000
smoothSolver:  Solving for p, Initial residual = 2.32855e-05, Final residual = 9.09549e-15, No Iterations 1000
diagonal:  Solving for rho, Initial residual = 0, Final residual = 0, No Iterations 0
time step continuity errors : sum local = 2.01038e-16, global = -3.40136e-17, cumulative = -1.34057e-14
ExecutionTime = 166.08 s  ClockTime = 169 s

Time = 0.01495

Courant Number mean: 0.00213965 max: 0.0426931
diagonal:  Solving for rho, Initial residual = 0, Final residual = 0, No Iterations 0
PIMPLE: iteration 1
smoothSolver:  Solving for Ux, Initial residual = 0.00343067, Final residual = 1.93787e-17, No Iterations 2
smoothSolver:  Solving for e, Initial residual = 0.00343266, Final residual = 2.33506e-14, No Iterations 1000
smoothSolver:  Solving for p, Initial residual = 0.00344151, Final residual = 8.79498e-15, No Iterations 1000
diagonal:  Solving for rho, Initial residual = 0, Final residual = 0, No Iterations 0
time step continuity errors : sum local = 2.03279e-16, global = 2.38218e-18, cumulative = -1.34033e-14
PIMPLE: iteration 2
smoothSolver:  Solving for Ux, Initial residual = 4.98729e-06, Final residual = 1.77755e-17, No Iterations 2
smoothSolver:  Solving for e, Initial residual = 0.000138704, Final residual = 2.30454e-14, No Iterations 1000
smoothSolver:  Solving for p, Initial residual = 2.35677e-05, Final residual = 8.77917e-15, No Iterations 1000
diagonal:  Solving for rho, Initial residual = 0, Final residual = 0, No Iterations 0
time step continuity errors : sum local = 2.00235e-16, global = -1.25726e-17, cumulative = -1.34159e-14
ExecutionTime = 166.19 s  ClockTime = 169 s

Time = 0.01496

Courant Number mean: 0.00211258 max: 0.0426924
diagonal:  Solving for rho, Initial residual = 0, Final residual = 0, No Iterations 0
PIMPLE: iteration 1
smoothSolver:  Solving for Ux, Initial residual = 0.00347166, Final residual = 1.63804e-17, No Iterations 2
smoothSolver:  Solving for e, Initial residual = 0.00347467, Final residual = 2.23803e-14, No Iterations 1000
smoothSolver:  Solving for p, Initial residual = 0.00348372, Final residual = 8.72883e-15, No Iterations 1000
diagonal:  Solving for rho, Initial residual = 0, Final residual = 0, No Iterations 0
time step continuity errors : sum local = 1.9586e-16, global = 3.97014e-18, cumulative = -1.34119e-14
PIMPLE: iteration 2
smoothSolver:  Solving for Ux, Initial residual = 5.04496e-06, Final residual = 1.69753e-17, No Iterations 2
smoothSolver:  Solving for e, Initial residual = 0.000140381, Final residual = 2.30749e-14, No Iterations 1000
smoothSolver:  Solving for p, Initial residual = 2.38424e-05, Final residual = 9.13746e-15, No Iterations 1000
diagonal:  Solving for rho, Initial residual = 0, Final residual = 0, No Iterations 0
time step continuity errors : sum local = 1.99036e-16, global = -8.99899e-18, cumulative = -1.34209e-14
ExecutionTime = 166.3 s  ClockTime = 169 s

Time = 0.01497

Courant Number mean: 0.00208552 max: 0.0426917
diagonal:  Solving for rho, Initial residual = 0, Final residual = 0, No Iterations 0
PIMPLE: iteration 1
smoothSolver:  Solving for Ux, Initial residual = 0.00351366, Final residual = 1.77768e-17, No Iterations 2
smoothSolver:  Solving for e, Initial residual = 0.00351782, Final residual = 2.27702e-14, No Iterations 1000
smoothSolver:  Solving for p, Initial residual = 0.00352701, Final residual = 9.06525e-15, No Iterations 1000
diagonal:  Solving for rho, Initial residual = 0, Final residual = 0, No Iterations 0
time step continuity errors : sum local = 2.00749e-16, global = 4.63164e-18, cumulative = -1.34163e-14
PIMPLE: iteration 2
smoothSolver:  Solving for Ux, Initial residual = 5.10369e-06, Final residual = 1.94337e-17, No Iterations 2
smoothSolver:  Solving for e, Initial residual = 0.000142198, Final residual = 2.37336e-14, No Iterations 1000
smoothSolver:  Solving for p, Initial residual = 2.41576e-05, Final residual = 9.52722e-15, No Iterations 1000
diagonal:  Solving for rho, Initial residual = 0, Final residual = 0, No Iterations 0
time step continuity errors : sum local = 2.02998e-16, global = -2.69959e-17, cumulative = -1.34433e-14
ExecutionTime = 166.41 s  ClockTime = 169 s

Time = 0.01498

Courant Number mean: 0.00205846 max: 0.0426909
diagonal:  Solving for rho, Initial residual = 0, Final residual = 0, No Iterations 0
PIMPLE: iteration 1
smoothSolver:  Solving for Ux, Initial residual = 0.00355663, Final residual = 1.70207e-17, No Iterations 2
smoothSolver:  Solving for e, Initial residual = 0.00356207, Final residual = 2.37884e-14, No Iterations 1000
smoothSolver:  Solving for p, Initial residual = 0.00357146, Final residual = 9.59364e-15, No Iterations 1000
diagonal:  Solving for rho, Initial residual = 0, Final residual = 0, No Iterations 0
time step continuity errors : sum local = 1.92933e-16, global = 2.64655e-19, cumulative = -1.3443e-14
PIMPLE: iteration 2
smoothSolver:  Solving for Ux, Initial residual = 5.16375e-06, Final residual = 1.68066e-17, No Iterations 2
smoothSolver:  Solving for e, Initial residual = 0.000143925, Final residual = 2.31692e-14, No Iterations 1000
smoothSolver:  Solving for p, Initial residual = 2.44573e-05, Final residual = 9.14164e-15, No Iterations 1000
diagonal:  Solving for rho, Initial residual = 0, Final residual = 0, No Iterations 0
time step continuity errors : sum local = 1.95183e-16, global = -1.91875e-17, cumulative = -1.34622e-14
ExecutionTime = 166.52 s  ClockTime = 169 s

Time = 0.01499

Courant Number mean: 0.00203142 max: 0.04269
diagonal:  Solving for rho, Initial residual = 0, Final residual = 0, No Iterations 0
PIMPLE: iteration 1
smoothSolver:  Solving for Ux, Initial residual = 0.00360068, Final residual = 1.90727e-17, No Iterations 2
smoothSolver:  Solving for e, Initial residual = 0.00360756, Final residual = 2.28695e-14, No Iterations 1000
smoothSolver:  Solving for p, Initial residual = 0.00361713, Final residual = 9.10836e-15, No Iterations 1000
diagonal:  Solving for rho, Initial residual = 0, Final residual = 0, No Iterations 0
time step continuity errors : sum local = 1.99145e-16, global = 1.46878e-17, cumulative = -1.34475e-14
PIMPLE: iteration 2
smoothSolver:  Solving for Ux, Initial residual = 5.22496e-06, Final residual = 1.7476e-17, No Iterations 2
smoothSolver:  Solving for e, Initial residual = 0.000145804, Final residual = 2.43864e-14, No Iterations 1000
smoothSolver:  Solving for p, Initial residual = 2.47662e-05, Final residual = 9.43653e-15, No Iterations 1000
diagonal:  Solving for rho, Initial residual = 0, Final residual = 0, No Iterations 0
time step continuity errors : sum local = 1.9888e-16, global = -1.57463e-17, cumulative = -1.34633e-14
ExecutionTime = 166.63 s  ClockTime = 169 s

Time = 0.015

Courant Number mean: 0.00200438 max: 0.042689
diagonal:  Solving for rho, Initial residual = 0, Final residual = 0, No Iterations 0
PIMPLE: iteration 1
smoothSolver:  Solving for Ux, Initial residual = 0.00364575, Final residual = 1.93068e-17, No Iterations 2
smoothSolver:  Solving for e, Initial residual = 0.00365426, Final residual = 2.44695e-14, No Iterations 1000
smoothSolver:  Solving for p, Initial residual = 0.00366403, Final residual = 9.35503e-15, No Iterations 1000
diagonal:  Solving for rho, Initial residual = 0, Final residual = 0, No Iterations 0
time step continuity errors : sum local = 1.9305e-16, global = 3.30792e-18, cumulative = -1.346e-14
PIMPLE: iteration 2
smoothSolver:  Solving for Ux, Initial residual = 5.2875e-06, Final residual = 1.99725e-17, No Iterations 2
smoothSolver:  Solving for e, Initial residual = 0.000147738, Final residual = 2.41485e-14, No Iterations 1000
smoothSolver:  Solving for p, Initial residual = 2.51016e-05, Final residual = 9.60437e-15, No Iterations 1000
diagonal:  Solving for rho, Initial residual = 0, Final residual = 0, No Iterations 0
time step continuity errors : sum local = 2.00725e-16, global = -2.28908e-17, cumulative = -1.34829e-14
ExecutionTime = 166.75 s  ClockTime = 169 s

writeRegisteredObject rhofunc output:
    writing object rho

End

