/*---------------------------------------------------------------------------*\
| =========                 |                                                 |
| \\      /  F ield         | OpenFOAM: The Open Source CFD Toolbox           |
|  \\    /   O peration     | Version:  3.0.x                                 |
|   \\  /    A nd           | Web:      www.OpenFOAM.org                      |
|    \\/     M anipulation  |                                                 |
\*---------------------------------------------------------------------------*/
Build  : 3.0.x-4b5e129783d9
Exec   : sonicFoam
Date   : Jan 30 2017
Time   : 16:42:30
Host   : "alex-VirtualBox"
PID    : 6822
Case   : /home/alex/OpenFOAM/alex-3.0.x/run/SH6_43mps
nProcs : 1
sigFpe : Enabling floating point exception trapping (FOAM_SIGFPE).
fileModificationChecking : Monitoring run-time modified files using timeStampMaster
allowSystemOperations : Allowing user-supplied system call operations

// * * * * * * * * * * * * * * * * * * * * * * * * * * * * * * * * * * * * * //
Create time

Create mesh for time = 0.5


PIMPLE: no residual control data found. Calculations will employ 2 corrector loops

Reading thermophysical properties

Selecting thermodynamics package 
{
    type            hePsiThermo;
    mixture         pureMixture;
    transport       const;
    thermo          hConst;
    equationOfState perfectGas;
    specie          specie;
    energy          sensibleInternalEnergy;
}

Reading field U

Reading/calculating face flux field phi

Creating turbulence model

Selecting turbulence model type laminar
Creating field kinetic energy K

No MRF models present

No finite volume options present


Starting time loop

Time = 0.50025

Courant Number mean: 0.0083211 max: 0.236716
diagonal:  Solving for rho, Initial residual = 0, Final residual = 0, No Iterations 0
PIMPLE: iteration 1
smoothSolver:  Solving for Ux, Initial residual = 0.000670509, Final residual = 2.32947e-16, No Iterations 3
smoothSolver:  Solving for Uy, Initial residual = 0.00212306, Final residual = 2.80784e-17, No Iterations 4
smoothSolver:  Solving for e, Initial residual = 0.00113838, Final residual = 1.34043e-14, No Iterations 1000
smoothSolver:  Solving for p, Initial residual = 0.00120925, Final residual = 1.16773e-13, No Iterations 1000
diagonal:  Solving for rho, Initial residual = 0, Final residual = 0, No Iterations 0
time step continuity errors : sum local = 5.32452e-15, global = 2.31366e-15, cumulative = 2.31366e-15
PIMPLE: iteration 2
smoothSolver:  Solving for Ux, Initial residual = 3.27994e-07, Final residual = 3.63335e-17, No Iterations 3
smoothSolver:  Solving for Uy, Initial residual = 7.17875e-07, Final residual = 3.16785e-17, No Iterations 3
smoothSolver:  Solving for e, Initial residual = 2.04941e-05, Final residual = 1.36249e-14, No Iterations 1000
smoothSolver:  Solving for p, Initial residual = 3.83373e-06, Final residual = 1.15754e-13, No Iterations 1000
diagonal:  Solving for rho, Initial residual = 0, Final residual = 0, No Iterations 0
time step continuity errors : sum local = 5.27534e-15, global = 2.05863e-17, cumulative = 2.33425e-15
ExecutionTime = 1.9 s  ClockTime = 2 s

Time = 0.5005

Courant Number mean: 0.00829433 max: 0.235523
diagonal:  Solving for rho, Initial residual = 0, Final residual = 0, No Iterations 0
PIMPLE: iteration 1
smoothSolver:  Solving for Ux, Initial residual = 0.000671658, Final residual = 2.27298e-16, No Iterations 3
smoothSolver:  Solving for Uy, Initial residual = 0.00212371, Final residual = 2.8575e-17, No Iterations 4
smoothSolver:  Solving for e, Initial residual = 0.00118534, Final residual = 1.36899e-14, No Iterations 1000
smoothSolver:  Solving for p, Initial residual = 0.00118264, Final residual = 1.15578e-13, No Iterations 1000
diagonal:  Solving for rho, Initial residual = 0, Final residual = 0, No Iterations 0
time step continuity errors : sum local = 5.26691e-15, global = 2.24361e-15, cumulative = 4.57786e-15
PIMPLE: iteration 2
smoothSolver:  Solving for Ux, Initial residual = 2.97878e-07, Final residual = 3.58246e-17, No Iterations 3
smoothSolver:  Solving for Uy, Initial residual = 6.25017e-07, Final residual = 3.31349e-17, No Iterations 3
smoothSolver:  Solving for e, Initial residual = 1.11649e-05, Final residual = 1.34496e-14, No Iterations 1000
smoothSolver:  Solving for p, Initial residual = 2.11084e-06, Final residual = 1.15703e-13, No Iterations 1000
diagonal:  Solving for rho, Initial residual = 0, Final residual = 0, No Iterations 0
time step continuity errors : sum local = 5.32527e-15, global = 3.36394e-17, cumulative = 4.6115e-15
ExecutionTime = 3.66 s  ClockTime = 4 s

Time = 0.50075

Courant Number mean: 0.0082676 max: 0.234327
diagonal:  Solving for rho, Initial residual = 0, Final residual = 0, No Iterations 0
PIMPLE: iteration 1
smoothSolver:  Solving for Ux, Initial residual = 0.000674367, Final residual = 2.23702e-16, No Iterations 3
smoothSolver:  Solving for Uy, Initial residual = 0.00213037, Final residual = 2.79304e-17, No Iterations 4
smoothSolver:  Solving for e, Initial residual = 0.00118858, Final residual = 1.38397e-14, No Iterations 1000
smoothSolver:  Solving for p, Initial residual = 0.00118229, Final residual = 1.14773e-13, No Iterations 1000
diagonal:  Solving for rho, Initial residual = 0, Final residual = 0, No Iterations 0
time step continuity errors : sum local = 5.32932e-15, global = 2.22282e-15, cumulative = 6.83432e-15
PIMPLE: iteration 2
smoothSolver:  Solving for Ux, Initial residual = 2.88929e-07, Final residual = 3.68191e-17, No Iterations 3
smoothSolver:  Solving for Uy, Initial residual = 6.04549e-07, Final residual = 3.08342e-17, No Iterations 3
smoothSolver:  Solving for e, Initial residual = 1.21814e-05, Final residual = 1.37688e-14, No Iterations 1000
smoothSolver:  Solving for p, Initial residual = 2.29061e-06, Final residual = 1.16e-13, No Iterations 1000
diagonal:  Solving for rho, Initial residual = 0, Final residual = 0, No Iterations 0
time step continuity errors : sum local = 5.34708e-15, global = 2.08044e-17, cumulative = 6.85513e-15
ExecutionTime = 5.42 s  ClockTime = 6 s

Time = 0.501

Courant Number mean: 0.00824088 max: 0.233133
diagonal:  Solving for rho, Initial residual = 0, Final residual = 0, No Iterations 0
PIMPLE: iteration 1
smoothSolver:  Solving for Ux, Initial residual = 0.000677068, Final residual = 2.17431e-16, No Iterations 3
smoothSolver:  Solving for Uy, Initial residual = 0.00213749, Final residual = 2.77271e-17, No Iterations 4
smoothSolver:  Solving for e, Initial residual = 0.00119151, Final residual = 1.38024e-14, No Iterations 1000
smoothSolver:  Solving for p, Initial residual = 0.00118527, Final residual = 1.16453e-13, No Iterations 1000
diagonal:  Solving for rho, Initial residual = 0, Final residual = 0, No Iterations 0
time step continuity errors : sum local = 5.32243e-15, global = 2.1064e-15, cumulative = 8.96153e-15
PIMPLE: iteration 2
smoothSolver:  Solving for Ux, Initial residual = 2.88577e-07, Final residual = 3.52691e-17, No Iterations 3
smoothSolver:  Solving for Uy, Initial residual = 6.09867e-07, Final residual = 3.26603e-17, No Iterations 3
smoothSolver:  Solving for e, Initial residual = 1.03681e-05, Final residual = 1.37689e-14, No Iterations 1000
smoothSolver:  Solving for p, Initial residual = 1.98735e-06, Final residual = 1.14977e-13, No Iterations 1000
diagonal:  Solving for rho, Initial residual = 0, Final residual = 0, No Iterations 0
time step continuity errors : sum local = 5.32095e-15, global = 3.55276e-17, cumulative = 8.99705e-15
ExecutionTime = 7.16 s  ClockTime = 7 s

Time = 0.50125

Courant Number mean: 0.00821419 max: 0.231937
diagonal:  Solving for rho, Initial residual = 0, Final residual = 0, No Iterations 0
PIMPLE: iteration 1
smoothSolver:  Solving for Ux, Initial residual = 0.000679829, Final residual = 2.12951e-16, No Iterations 3
smoothSolver:  Solving for Uy, Initial residual = 0.00214442, Final residual = 2.62839e-17, No Iterations 4
smoothSolver:  Solving for e, Initial residual = 0.00119499, Final residual = 1.39813e-14, No Iterations 1000
smoothSolver:  Solving for p, Initial residual = 0.00118875, Final residual = 1.16748e-13, No Iterations 1000
diagonal:  Solving for rho, Initial residual = 0, Final residual = 0, No Iterations 0
time step continuity errors : sum local = 5.38064e-15, global = 2.20332e-15, cumulative = 1.12004e-14
PIMPLE: iteration 2
smoothSolver:  Solving for Ux, Initial residual = 2.8489e-07, Final residual = 3.51966e-17, No Iterations 3
smoothSolver:  Solving for Uy, Initial residual = 5.95784e-07, Final residual = 3.00152e-17, No Iterations 3
smoothSolver:  Solving for e, Initial residual = 8.55212e-06, Final residual = 1.37823e-14, No Iterations 1000
smoothSolver:  Solving for p, Initial residual = 1.69202e-06, Final residual = 1.16612e-13, No Iterations 1000
diagonal:  Solving for rho, Initial residual = 0, Final residual = 0, No Iterations 0
time step continuity errors : sum local = 5.31958e-15, global = 1.90045e-16, cumulative = 1.13904e-14
ExecutionTime = 8.91 s  ClockTime = 9 s

Time = 0.5015

Courant Number mean: 0.00818753 max: 0.230744
diagonal:  Solving for rho, Initial residual = 0, Final residual = 0, No Iterations 0
PIMPLE: iteration 1
smoothSolver:  Solving for Ux, Initial residual = 0.000682557, Final residual = 2.08881e-16, No Iterations 3
smoothSolver:  Solving for Uy, Initial residual = 0.00215151, Final residual = 2.64191e-17, No Iterations 4
smoothSolver:  Solving for e, Initial residual = 0.00119866, Final residual = 1.39354e-14, No Iterations 1000
smoothSolver:  Solving for p, Initial residual = 0.00119242, Final residual = 1.18141e-13, No Iterations 1000
diagonal:  Solving for rho, Initial residual = 0, Final residual = 0, No Iterations 0
time step continuity errors : sum local = 5.24352e-15, global = 2.19956e-15, cumulative = 1.359e-14
PIMPLE: iteration 2
smoothSolver:  Solving for Ux, Initial residual = 2.86387e-07, Final residual = 3.65221e-17, No Iterations 3
smoothSolver:  Solving for Uy, Initial residual = 6.03123e-07, Final residual = 3.14388e-17, No Iterations 3
smoothSolver:  Solving for e, Initial residual = 8.05034e-06, Final residual = 1.43543e-14, No Iterations 1000
smoothSolver:  Solving for p, Initial residual = 1.60188e-06, Final residual = 1.16198e-13, No Iterations 1000
diagonal:  Solving for rho, Initial residual = 0, Final residual = 0, No Iterations 0
time step continuity errors : sum local = 5.32235e-15, global = 6.69938e-17, cumulative = 1.3657e-14
ExecutionTime = 10.66 s  ClockTime = 11 s

Time = 0.50175

Courant Number mean: 0.00816089 max: 0.22955
diagonal:  Solving for rho, Initial residual = 0, Final residual = 0, No Iterations 0
PIMPLE: iteration 1
smoothSolver:  Solving for Ux, Initial residual = 0.000685299, Final residual = 2.04288e-16, No Iterations 3
smoothSolver:  Solving for Uy, Initial residual = 0.00215844, Final residual = 2.74763e-17, No Iterations 4
smoothSolver:  Solving for e, Initial residual = 0.00120241, Final residual = 1.39319e-14, No Iterations 1000
smoothSolver:  Solving for p, Initial residual = 0.0011961, Final residual = 1.16859e-13, No Iterations 1000
diagonal:  Solving for rho, Initial residual = 0, Final residual = 0, No Iterations 0
time step continuity errors : sum local = 5.32507e-15, global = 2.15807e-15, cumulative = 1.5815e-14
PIMPLE: iteration 2
smoothSolver:  Solving for Ux, Initial residual = 2.84959e-07, Final residual = 3.49883e-17, No Iterations 3
smoothSolver:  Solving for Uy, Initial residual = 5.9268e-07, Final residual = 3.0438e-17, No Iterations 3
smoothSolver:  Solving for e, Initial residual = 7.84437e-06, Final residual = 1.39457e-14, No Iterations 1000
smoothSolver:  Solving for p, Initial residual = 1.57186e-06, Final residual = 1.18262e-13, No Iterations 1000
diagonal:  Solving for rho, Initial residual = 0, Final residual = 0, No Iterations 0
time step continuity errors : sum local = 5.29793e-15, global = -4.42619e-17, cumulative = 1.57708e-14
ExecutionTime = 12.4 s  ClockTime = 13 s

Time = 0.502

Courant Number mean: 0.00813429 max: 0.228357
diagonal:  Solving for rho, Initial residual = 0, Final residual = 0, No Iterations 0
PIMPLE: iteration 1
smoothSolver:  Solving for Ux, Initial residual = 0.000688005, Final residual = 1.99667e-16, No Iterations 3
smoothSolver:  Solving for Uy, Initial residual = 0.00216545, Final residual = 2.77808e-17, No Iterations 4
smoothSolver:  Solving for e, Initial residual = 0.00120619, Final residual = 1.38715e-14, No Iterations 1000
smoothSolver:  Solving for p, Initial residual = 0.00119984, Final residual = 1.1553e-13, No Iterations 1000
diagonal:  Solving for rho, Initial residual = 0, Final residual = 0, No Iterations 0
time step continuity errors : sum local = 5.33117e-15, global = 2.09348e-15, cumulative = 1.78643e-14
PIMPLE: iteration 2
smoothSolver:  Solving for Ux, Initial residual = 2.85344e-07, Final residual = 3.54716e-17, No Iterations 3
smoothSolver:  Solving for Uy, Initial residual = 5.99503e-07, Final residual = 3.17303e-17, No Iterations 3
smoothSolver:  Solving for e, Initial residual = 7.67891e-06, Final residual = 1.38847e-14, No Iterations 1000
smoothSolver:  Solving for p, Initial residual = 1.53815e-06, Final residual = 1.17142e-13, No Iterations 1000
diagonal:  Solving for rho, Initial residual = 0, Final residual = 0, No Iterations 0
time step continuity errors : sum local = 5.33095e-15, global = -3.73951e-17, cumulative = 1.78269e-14
ExecutionTime = 14.14 s  ClockTime = 15 s

Time = 0.50225

Courant Number mean: 0.0081077 max: 0.227162
diagonal:  Solving for rho, Initial residual = 0, Final residual = 0, No Iterations 0
PIMPLE: iteration 1
smoothSolver:  Solving for Ux, Initial residual = 0.000690728, Final residual = 1.96329e-16, No Iterations 3
smoothSolver:  Solving for Uy, Initial residual = 0.00217233, Final residual = 2.73363e-17, No Iterations 4
smoothSolver:  Solving for e, Initial residual = 0.00121, Final residual = 1.41974e-14, No Iterations 1000
smoothSolver:  Solving for p, Initial residual = 0.00120362, Final residual = 1.18309e-13, No Iterations 1000
diagonal:  Solving for rho, Initial residual = 0, Final residual = 0, No Iterations 0
time step continuity errors : sum local = 5.28668e-15, global = 2.07456e-15, cumulative = 1.99014e-14
PIMPLE: iteration 2
smoothSolver:  Solving for Ux, Initial residual = 2.8506e-07, Final residual = 3.45796e-17, No Iterations 3
smoothSolver:  Solving for Uy, Initial residual = 5.90934e-07, Final residual = 3.12267e-17, No Iterations 3
smoothSolver:  Solving for e, Initial residual = 7.51017e-06, Final residual = 1.38469e-14, No Iterations 1000
smoothSolver:  Solving for p, Initial residual = 1.5128e-06, Final residual = 1.19962e-13, No Iterations 1000
diagonal:  Solving for rho, Initial residual = 0, Final residual = 0, No Iterations 0
time step continuity errors : sum local = 5.31493e-15, global = -9.70683e-17, cumulative = 1.98044e-14
ExecutionTime = 15.9 s  ClockTime = 17 s

Time = 0.5025

Courant Number mean: 0.00808115 max: 0.225969
diagonal:  Solving for rho, Initial residual = 0, Final residual = 0, No Iterations 0
PIMPLE: iteration 1
smoothSolver:  Solving for Ux, Initial residual = 0.000693458, Final residual = 1.90298e-16, No Iterations 3
smoothSolver:  Solving for Uy, Initial residual = 0.00217928, Final residual = 2.66127e-17, No Iterations 4
smoothSolver:  Solving for e, Initial residual = 0.00121385, Final residual = 1.40708e-14, No Iterations 1000
smoothSolver:  Solving for p, Initial residual = 0.00120739, Final residual = 1.17364e-13, No Iterations 1000
diagonal:  Solving for rho, Initial residual = 0, Final residual = 0, No Iterations 0
time step continuity errors : sum local = 5.30653e-15, global = 2.05782e-15, cumulative = 2.18622e-14
PIMPLE: iteration 2
smoothSolver:  Solving for Ux, Initial residual = 2.84867e-07, Final residual = 3.50429e-17, No Iterations 3
smoothSolver:  Solving for Uy, Initial residual = 5.98601e-07, Final residual = 3.11819e-17, No Iterations 3
smoothSolver:  Solving for e, Initial residual = 7.49416e-06, Final residual = 1.39508e-14, No Iterations 1000
smoothSolver:  Solving for p, Initial residual = 1.50327e-06, Final residual = 1.17169e-13, No Iterations 1000
diagonal:  Solving for rho, Initial residual = 0, Final residual = 0, No Iterations 0
time step continuity errors : sum local = 5.37437e-15, global = 3.00421e-17, cumulative = 2.18922e-14
ExecutionTime = 17.64 s  ClockTime = 18 s

Time = 0.50275

Courant Number mean: 0.00805464 max: 0.224775
diagonal:  Solving for rho, Initial residual = 0, Final residual = 0, No Iterations 0
PIMPLE: iteration 1
smoothSolver:  Solving for Ux, Initial residual = 0.000696196, Final residual = 1.87148e-16, No Iterations 3
smoothSolver:  Solving for Uy, Initial residual = 0.00218615, Final residual = 2.79385e-17, No Iterations 4
smoothSolver:  Solving for e, Initial residual = 0.00121771, Final residual = 1.4183e-14, No Iterations 1000
smoothSolver:  Solving for p, Initial residual = 0.00121128, Final residual = 1.17108e-13, No Iterations 1000
diagonal:  Solving for rho, Initial residual = 0, Final residual = 0, No Iterations 0
time step continuity errors : sum local = 5.30759e-15, global = 2.07997e-15, cumulative = 2.39722e-14
PIMPLE: iteration 2
smoothSolver:  Solving for Ux, Initial residual = 2.84909e-07, Final residual = 3.42253e-17, No Iterations 3
smoothSolver:  Solving for Uy, Initial residual = 5.89534e-07, Final residual = 2.94875e-17, No Iterations 3
smoothSolver:  Solving for e, Initial residual = 7.40512e-06, Final residual = 1.41894e-14, No Iterations 1000
smoothSolver:  Solving for p, Initial residual = 1.49077e-06, Final residual = 1.18532e-13, No Iterations 1000
diagonal:  Solving for rho, Initial residual = 0, Final residual = 0, No Iterations 0
time step continuity errors : sum local = 5.39451e-15, global = -2.961e-17, cumulative = 2.39426e-14
ExecutionTime = 19.38 s  ClockTime = 20 s

Time = 0.503

Courant Number mean: 0.00802815 max: 0.223583
diagonal:  Solving for rho, Initial residual = 0, Final residual = 0, No Iterations 0
PIMPLE: iteration 1
smoothSolver:  Solving for Ux, Initial residual = 0.000698919, Final residual = 1.82133e-16, No Iterations 3
smoothSolver:  Solving for Uy, Initial residual = 0.00219306, Final residual = 2.83318e-17, No Iterations 4
smoothSolver:  Solving for e, Initial residual = 0.00122161, Final residual = 1.40336e-14, No Iterations 1000
smoothSolver:  Solving for p, Initial residual = 0.00121505, Final residual = 1.18742e-13, No Iterations 1000
diagonal:  Solving for rho, Initial residual = 0, Final residual = 0, No Iterations 0
time step continuity errors : sum local = 5.31334e-15, global = 2.09104e-15, cumulative = 2.60336e-14
PIMPLE: iteration 2
smoothSolver:  Solving for Ux, Initial residual = 2.84372e-07, Final residual = 3.17341e-17, No Iterations 3
smoothSolver:  Solving for Uy, Initial residual = 5.98163e-07, Final residual = 3.14533e-17, No Iterations 3
smoothSolver:  Solving for e, Initial residual = 7.415e-06, Final residual = 1.41557e-14, No Iterations 1000
smoothSolver:  Solving for p, Initial residual = 1.48646e-06, Final residual = 1.18799e-13, No Iterations 1000
diagonal:  Solving for rho, Initial residual = 0, Final residual = 0, No Iterations 0
time step continuity errors : sum local = 5.29479e-15, global = -9.19446e-18, cumulative = 2.60244e-14
ExecutionTime = 21.13 s  ClockTime = 22 s

Time = 0.50325

Courant Number mean: 0.00800169 max: 0.222389
diagonal:  Solving for rho, Initial residual = 0, Final residual = 0, No Iterations 0
PIMPLE: iteration 1
smoothSolver:  Solving for Ux, Initial residual = 0.000701652, Final residual = 1.79e-16, No Iterations 3
smoothSolver:  Solving for Uy, Initial residual = 0.00219987, Final residual = 2.76095e-17, No Iterations 4
smoothSolver:  Solving for e, Initial residual = 0.00122554, Final residual = 1.4174e-14, No Iterations 1000
smoothSolver:  Solving for p, Initial residual = 0.00121901, Final residual = 1.20011e-13, No Iterations 1000
diagonal:  Solving for rho, Initial residual = 0, Final residual = 0, No Iterations 0
time step continuity errors : sum local = 5.40178e-15, global = 2.11422e-15, cumulative = 2.81386e-14
PIMPLE: iteration 2
smoothSolver:  Solving for Ux, Initial residual = 2.84785e-07, Final residual = 3.46413e-17, No Iterations 3
smoothSolver:  Solving for Uy, Initial residual = 5.90168e-07, Final residual = 2.99058e-17, No Iterations 3
smoothSolver:  Solving for e, Initial residual = 7.3751e-06, Final residual = 1.41613e-14, No Iterations 1000
smoothSolver:  Solving for p, Initial residual = 1.48193e-06, Final residual = 1.21262e-13, No Iterations 1000
diagonal:  Solving for rho, Initial residual = 0, Final residual = 0, No Iterations 0
time step continuity errors : sum local = 5.3146e-15, global = -1.5429e-17, cumulative = 2.81232e-14
ExecutionTime = 22.87 s  ClockTime = 24 s

Time = 0.5035

Courant Number mean: 0.00797527 max: 0.221198
diagonal:  Solving for rho, Initial residual = 0, Final residual = 0, No Iterations 0
PIMPLE: iteration 1
smoothSolver:  Solving for Ux, Initial residual = 0.000704391, Final residual = 1.74559e-16, No Iterations 3
smoothSolver:  Solving for Uy, Initial residual = 0.00220668, Final residual = 2.75918e-17, No Iterations 4
smoothSolver:  Solving for e, Initial residual = 0.00122948, Final residual = 1.42192e-14, No Iterations 1000
smoothSolver:  Solving for p, Initial residual = 0.0012228, Final residual = 1.18673e-13, No Iterations 1000
diagonal:  Solving for rho, Initial residual = 0, Final residual = 0, No Iterations 0
time step continuity errors : sum local = 5.36281e-15, global = 2.0712e-15, cumulative = 3.01944e-14
PIMPLE: iteration 2
smoothSolver:  Solving for Ux, Initial residual = 2.84426e-07, Final residual = 3.40889e-17, No Iterations 3
smoothSolver:  Solving for Uy, Initial residual = 5.98057e-07, Final residual = 2.97054e-17, No Iterations 3
smoothSolver:  Solving for e, Initial residual = 7.40605e-06, Final residual = 1.42514e-14, No Iterations 1000
smoothSolver:  Solving for p, Initial residual = 1.48109e-06, Final residual = 1.20311e-13, No Iterations 1000
diagonal:  Solving for rho, Initial residual = 0, Final residual = 0, No Iterations 0
time step continuity errors : sum local = 5.25012e-15, global = 3.15203e-17, cumulative = 3.02259e-14
ExecutionTime = 24.6 s  ClockTime = 26 s

Time = 0.50375

Courant Number mean: 0.00794887 max: 0.220005
diagonal:  Solving for rho, Initial residual = 0, Final residual = 0, No Iterations 0
PIMPLE: iteration 1
smoothSolver:  Solving for Ux, Initial residual = 0.000707131, Final residual = 1.70619e-16, No Iterations 3
smoothSolver:  Solving for Uy, Initial residual = 0.00221342, Final residual = 2.71101e-17, No Iterations 4
smoothSolver:  Solving for e, Initial residual = 0.00123343, Final residual = 1.434e-14, No Iterations 1000
smoothSolver:  Solving for p, Initial residual = 0.00122681, Final residual = 1.20781e-13, No Iterations 1000
diagonal:  Solving for rho, Initial residual = 0, Final residual = 0, No Iterations 0
time step continuity errors : sum local = 5.33222e-15, global = 2.0713e-15, cumulative = 3.22972e-14
PIMPLE: iteration 2
smoothSolver:  Solving for Ux, Initial residual = 2.84665e-07, Final residual = 3.29011e-17, No Iterations 3
smoothSolver:  Solving for Uy, Initial residual = 5.91117e-07, Final residual = 2.94195e-17, No Iterations 3
smoothSolver:  Solving for e, Initial residual = 7.37919e-06, Final residual = 1.43621e-14, No Iterations 1000
smoothSolver:  Solving for p, Initial residual = 1.47949e-06, Final residual = 1.19948e-13, No Iterations 1000
diagonal:  Solving for rho, Initial residual = 0, Final residual = 0, No Iterations 0
time step continuity errors : sum local = 5.35551e-15, global = 1.38295e-17, cumulative = 3.23111e-14
ExecutionTime = 26.45 s  ClockTime = 27 s

Time = 0.504

Courant Number mean: 0.00792252 max: 0.218814
diagonal:  Solving for rho, Initial residual = 0, Final residual = 0, No Iterations 0
PIMPLE: iteration 1
smoothSolver:  Solving for Ux, Initial residual = 0.000709884, Final residual = 1.67129e-16, No Iterations 3
smoothSolver:  Solving for Uy, Initial residual = 0.00222019, Final residual = 2.69107e-17, No Iterations 4
smoothSolver:  Solving for e, Initial residual = 0.0012374, Final residual = 1.43477e-14, No Iterations 1000
smoothSolver:  Solving for p, Initial residual = 0.00123061, Final residual = 1.19218e-13, No Iterations 1000
diagonal:  Solving for rho, Initial residual = 0, Final residual = 0, No Iterations 0
time step continuity errors : sum local = 5.31385e-15, global = 2.03697e-15, cumulative = 3.4348e-14
PIMPLE: iteration 2
smoothSolver:  Solving for Ux, Initial residual = 2.84375e-07, Final residual = 3.4034e-17, No Iterations 3
smoothSolver:  Solving for Uy, Initial residual = 5.97781e-07, Final residual = 3.09861e-17, No Iterations 3
smoothSolver:  Solving for e, Initial residual = 7.42096e-06, Final residual = 1.46024e-14, No Iterations 1000
smoothSolver:  Solving for p, Initial residual = 1.48094e-06, Final residual = 1.21525e-13, No Iterations 1000
diagonal:  Solving for rho, Initial residual = 0, Final residual = 0, No Iterations 0
time step continuity errors : sum local = 5.42948e-15, global = 3.48064e-18, cumulative = 3.43515e-14
ExecutionTime = 28.2 s  ClockTime = 29 s

Time = 0.50425

Courant Number mean: 0.00789622 max: 0.217622
diagonal:  Solving for rho, Initial residual = 0, Final residual = 0, No Iterations 0
PIMPLE: iteration 1
smoothSolver:  Solving for Ux, Initial residual = 0.00071264, Final residual = 1.63619e-16, No Iterations 3
smoothSolver:  Solving for Uy, Initial residual = 0.00222688, Final residual = 2.84429e-17, No Iterations 4
smoothSolver:  Solving for e, Initial residual = 0.00124139, Final residual = 1.41594e-14, No Iterations 1000
smoothSolver:  Solving for p, Initial residual = 0.00123468, Final residual = 1.19795e-13, No Iterations 1000
diagonal:  Solving for rho, Initial residual = 0, Final residual = 0, No Iterations 0
time step continuity errors : sum local = 5.3039e-15, global = 2.08118e-15, cumulative = 3.64327e-14
PIMPLE: iteration 2
smoothSolver:  Solving for Ux, Initial residual = 2.84212e-07, Final residual = 3.40702e-17, No Iterations 3
smoothSolver:  Solving for Uy, Initial residual = 5.92329e-07, Final residual = 3.07415e-17, No Iterations 3
smoothSolver:  Solving for e, Initial residual = 7.3987e-06, Final residual = 1.43188e-14, No Iterations 1000
smoothSolver:  Solving for p, Initial residual = 1.48e-06, Final residual = 1.20248e-13, No Iterations 1000
diagonal:  Solving for rho, Initial residual = 0, Final residual = 0, No Iterations 0
time step continuity errors : sum local = 5.32225e-15, global = -8.95899e-17, cumulative = 3.63431e-14
ExecutionTime = 29.97 s  ClockTime = 31 s

Time = 0.5045

Courant Number mean: 0.00786996 max: 0.216432
diagonal:  Solving for rho, Initial residual = 0, Final residual = 0, No Iterations 0
PIMPLE: iteration 1
smoothSolver:  Solving for Ux, Initial residual = 0.000715408, Final residual = 1.59509e-16, No Iterations 3
smoothSolver:  Solving for Uy, Initial residual = 0.00223355, Final residual = 2.72235e-17, No Iterations 4
smoothSolver:  Solving for e, Initial residual = 0.00124541, Final residual = 1.43564e-14, No Iterations 1000
smoothSolver:  Solving for p, Initial residual = 0.00123852, Final residual = 1.20566e-13, No Iterations 1000
diagonal:  Solving for rho, Initial residual = 0, Final residual = 0, No Iterations 0
time step continuity errors : sum local = 5.42232e-15, global = 2.17018e-15, cumulative = 3.85133e-14
PIMPLE: iteration 2
smoothSolver:  Solving for Ux, Initial residual = 2.84025e-07, Final residual = 3.46251e-17, No Iterations 3
smoothSolver:  Solving for Uy, Initial residual = 5.98023e-07, Final residual = 2.92887e-17, No Iterations 3
smoothSolver:  Solving for e, Initial residual = 7.43431e-06, Final residual = 1.43797e-14, No Iterations 1000
smoothSolver:  Solving for p, Initial residual = 1.48006e-06, Final residual = 1.23117e-13, No Iterations 1000
diagonal:  Solving for rho, Initial residual = 0, Final residual = 0, No Iterations 0
time step continuity errors : sum local = 5.3461e-15, global = -7.52499e-17, cumulative = 3.8438e-14
ExecutionTime = 31.73 s  ClockTime = 33 s

Time = 0.50475

Courant Number mean: 0.00784374 max: 0.215242
diagonal:  Solving for rho, Initial residual = 0, Final residual = 0, No Iterations 0
PIMPLE: iteration 1
smoothSolver:  Solving for Ux, Initial residual = 0.000718163, Final residual = 1.55662e-16, No Iterations 3
smoothSolver:  Solving for Uy, Initial residual = 0.00224017, Final residual = 2.66737e-17, No Iterations 4
smoothSolver:  Solving for e, Initial residual = 0.00124946, Final residual = 1.44846e-14, No Iterations 1000
smoothSolver:  Solving for p, Initial residual = 0.00124265, Final residual = 1.20138e-13, No Iterations 1000
diagonal:  Solving for rho, Initial residual = 0, Final residual = 0, No Iterations 0
time step continuity errors : sum local = 5.31134e-15, global = 2.07639e-15, cumulative = 4.05144e-14
PIMPLE: iteration 2
smoothSolver:  Solving for Ux, Initial residual = 2.83788e-07, Final residual = 3.29933e-17, No Iterations 3
smoothSolver:  Solving for Uy, Initial residual = 5.94815e-07, Final residual = 2.93034e-17, No Iterations 3
smoothSolver:  Solving for e, Initial residual = 7.42106e-06, Final residual = 1.45362e-14, No Iterations 1000
smoothSolver:  Solving for p, Initial residual = 1.48073e-06, Final residual = 1.20766e-13, No Iterations 1000
diagonal:  Solving for rho, Initial residual = 0, Final residual = 0, No Iterations 0
time step continuity errors : sum local = 5.31293e-15, global = -9.64565e-17, cumulative = 4.0418e-14
ExecutionTime = 33.5 s  ClockTime = 34 s

Time = 0.505

Courant Number mean: 0.00781756 max: 0.214053
diagonal:  Solving for rho, Initial residual = 0, Final residual = 0, No Iterations 0
PIMPLE: iteration 1
smoothSolver:  Solving for Ux, Initial residual = 0.000720932, Final residual = 1.5217e-16, No Iterations 3
smoothSolver:  Solving for Uy, Initial residual = 0.00224676, Final residual = 2.69313e-17, No Iterations 4
smoothSolver:  Solving for e, Initial residual = 0.00125354, Final residual = 1.43171e-14, No Iterations 1000
smoothSolver:  Solving for p, Initial residual = 0.00124653, Final residual = 1.22471e-13, No Iterations 1000
diagonal:  Solving for rho, Initial residual = 0, Final residual = 0, No Iterations 0
time step continuity errors : sum local = 5.32513e-15, global = 2.04301e-15, cumulative = 4.2461e-14
PIMPLE: iteration 2
smoothSolver:  Solving for Ux, Initial residual = 2.83307e-07, Final residual = 3.29036e-17, No Iterations 3
smoothSolver:  Solving for Uy, Initial residual = 5.97696e-07, Final residual = 3.01081e-17, No Iterations 3
smoothSolver:  Solving for e, Initial residual = 7.45375e-06, Final residual = 1.44416e-14, No Iterations 1000
smoothSolver:  Solving for p, Initial residual = 1.48169e-06, Final residual = 1.22482e-13, No Iterations 1000
diagonal:  Solving for rho, Initial residual = 0, Final residual = 0, No Iterations 0
time step continuity errors : sum local = 5.32417e-15, global = -3.97865e-17, cumulative = 4.24212e-14
ExecutionTime = 35.24 s  ClockTime = 36 s

Time = 0.50525

Courant Number mean: 0.00779141 max: 0.212864
diagonal:  Solving for rho, Initial residual = 0, Final residual = 0, No Iterations 0
PIMPLE: iteration 1
smoothSolver:  Solving for Ux, Initial residual = 0.000723685, Final residual = 1.48217e-16, No Iterations 3
smoothSolver:  Solving for Uy, Initial residual = 0.00225329, Final residual = 2.72833e-17, No Iterations 4
smoothSolver:  Solving for e, Initial residual = 0.00125764, Final residual = 1.46848e-14, No Iterations 1000
smoothSolver:  Solving for p, Initial residual = 0.0012507, Final residual = 1.22541e-13, No Iterations 1000
diagonal:  Solving for rho, Initial residual = 0, Final residual = 0, No Iterations 0
time step continuity errors : sum local = 5.39499e-15, global = 2.22829e-15, cumulative = 4.46495e-14
PIMPLE: iteration 2
smoothSolver:  Solving for Ux, Initial residual = 2.83266e-07, Final residual = 3.39668e-17, No Iterations 3
smoothSolver:  Solving for Uy, Initial residual = 5.97036e-07, Final residual = 2.91877e-17, No Iterations 3
smoothSolver:  Solving for e, Initial residual = 7.45262e-06, Final residual = 1.47171e-14, No Iterations 1000
smoothSolver:  Solving for p, Initial residual = 1.48399e-06, Final residual = 1.20114e-13, No Iterations 1000
diagonal:  Solving for rho, Initial residual = 0, Final residual = 0, No Iterations 0
time step continuity errors : sum local = 5.35456e-15, global = -1.20527e-16, cumulative = 4.4529e-14
ExecutionTime = 36.98 s  ClockTime = 38 s

Time = 0.5055

Courant Number mean: 0.00776531 max: 0.211676
diagonal:  Solving for rho, Initial residual = 0, Final residual = 0, No Iterations 0
PIMPLE: iteration 1
smoothSolver:  Solving for Ux, Initial residual = 0.000726468, Final residual = 1.46463e-16, No Iterations 3
smoothSolver:  Solving for Uy, Initial residual = 0.00225978, Final residual = 2.77869e-17, No Iterations 4
smoothSolver:  Solving for e, Initial residual = 0.00126176, Final residual = 1.45753e-14, No Iterations 1000
smoothSolver:  Solving for p, Initial residual = 0.00125461, Final residual = 1.22082e-13, No Iterations 1000
diagonal:  Solving for rho, Initial residual = 0, Final residual = 0, No Iterations 0
time step continuity errors : sum local = 5.34628e-15, global = 2.00584e-15, cumulative = 4.65348e-14
PIMPLE: iteration 2
smoothSolver:  Solving for Ux, Initial residual = 2.82761e-07, Final residual = 3.25591e-17, No Iterations 3
smoothSolver:  Solving for Uy, Initial residual = 5.97425e-07, Final residual = 2.92248e-17, No Iterations 3
smoothSolver:  Solving for e, Initial residual = 7.48359e-06, Final residual = 1.46844e-14, No Iterations 1000
smoothSolver:  Solving for p, Initial residual = 1.485e-06, Final residual = 1.22647e-13, No Iterations 1000
diagonal:  Solving for rho, Initial residual = 0, Final residual = 0, No Iterations 0
time step continuity errors : sum local = 5.30583e-15, global = -2.56313e-16, cumulative = 4.62785e-14
ExecutionTime = 38.72 s  ClockTime = 40 s

Time = 0.50575

Courant Number mean: 0.00773927 max: 0.210489
diagonal:  Solving for rho, Initial residual = 0, Final residual = 0, No Iterations 0
PIMPLE: iteration 1
smoothSolver:  Solving for Ux, Initial residual = 0.000729232, Final residual = 1.41354e-16, No Iterations 3
smoothSolver:  Solving for Uy, Initial residual = 0.00226622, Final residual = 2.78663e-17, No Iterations 4
smoothSolver:  Solving for e, Initial residual = 0.00126589, Final residual = 1.44237e-14, No Iterations 1000
smoothSolver:  Solving for p, Initial residual = 0.00125882, Final residual = 1.21318e-13, No Iterations 1000
diagonal:  Solving for rho, Initial residual = 0, Final residual = 0, No Iterations 0
time step continuity errors : sum local = 5.32022e-15, global = 2.03916e-15, cumulative = 4.83176e-14
PIMPLE: iteration 2
smoothSolver:  Solving for Ux, Initial residual = 2.82984e-07, Final residual = 3.19774e-17, No Iterations 3
smoothSolver:  Solving for Uy, Initial residual = 6.00547e-07, Final residual = 3.00956e-17, No Iterations 3
smoothSolver:  Solving for e, Initial residual = 7.4881e-06, Final residual = 1.44806e-14, No Iterations 1000
smoothSolver:  Solving for p, Initial residual = 1.4879e-06, Final residual = 1.23491e-13, No Iterations 1000
diagonal:  Solving for rho, Initial residual = 0, Final residual = 0, No Iterations 0
time step continuity errors : sum local = 5.30797e-15, global = -1.29043e-16, cumulative = 4.81886e-14
ExecutionTime = 40.46 s  ClockTime = 41 s

Time = 0.506

Courant Number mean: 0.00771329 max: 0.209303
diagonal:  Solving for rho, Initial residual = 0, Final residual = 0, No Iterations 0
PIMPLE: iteration 1
smoothSolver:  Solving for Ux, Initial residual = 0.000732028, Final residual = 1.38902e-16, No Iterations 3
smoothSolver:  Solving for Uy, Initial residual = 0.0022726, Final residual = 2.91499e-17, No Iterations 4
smoothSolver:  Solving for e, Initial residual = 0.00127005, Final residual = 1.44063e-14, No Iterations 1000
smoothSolver:  Solving for p, Initial residual = 0.00126276, Final residual = 1.23489e-13, No Iterations 1000
diagonal:  Solving for rho, Initial residual = 0, Final residual = 0, No Iterations 0
time step continuity errors : sum local = 5.37699e-15, global = 2.02766e-15, cumulative = 5.02163e-14
PIMPLE: iteration 2
smoothSolver:  Solving for Ux, Initial residual = 2.82026e-07, Final residual = 3.31352e-17, No Iterations 3
smoothSolver:  Solving for Uy, Initial residual = 5.97153e-07, Final residual = 2.96668e-17, No Iterations 3
smoothSolver:  Solving for e, Initial residual = 7.50833e-06, Final residual = 1.47578e-14, No Iterations 1000
smoothSolver:  Solving for p, Initial residual = 1.48762e-06, Final residual = 1.23906e-13, No Iterations 1000
diagonal:  Solving for rho, Initial residual = 0, Final residual = 0, No Iterations 0
time step continuity errors : sum local = 5.35268e-15, global = -1.82373e-16, cumulative = 5.00339e-14
ExecutionTime = 42.2 s  ClockTime = 43 s

Time = 0.50625

Courant Number mean: 0.00768736 max: 0.208118
diagonal:  Solving for rho, Initial residual = 0, Final residual = 0, No Iterations 0
PIMPLE: iteration 1
smoothSolver:  Solving for Ux, Initial residual = 0.000734795, Final residual = 1.35601e-16, No Iterations 3
smoothSolver:  Solving for Uy, Initial residual = 0.00227896, Final residual = 2.88962e-17, No Iterations 4
smoothSolver:  Solving for e, Initial residual = 0.00127423, Final residual = 1.47146e-14, No Iterations 1000
smoothSolver:  Solving for p, Initial residual = 0.001267, Final residual = 1.244e-13, No Iterations 1000
diagonal:  Solving for rho, Initial residual = 0, Final residual = 0, No Iterations 0
time step continuity errors : sum local = 5.36223e-15, global = 1.98211e-15, cumulative = 5.2016e-14
PIMPLE: iteration 2
smoothSolver:  Solving for Ux, Initial residual = 2.82582e-07, Final residual = 3.21338e-17, No Iterations 3
smoothSolver:  Solving for Uy, Initial residual = 6.03433e-07, Final residual = 2.97004e-17, No Iterations 3
smoothSolver:  Solving for e, Initial residual = 7.52434e-06, Final residual = 1.44959e-14, No Iterations 1000
smoothSolver:  Solving for p, Initial residual = 1.49251e-06, Final residual = 1.24449e-13, No Iterations 1000
diagonal:  Solving for rho, Initial residual = 0, Final residual = 0, No Iterations 0
time step continuity errors : sum local = 5.25593e-15, global = -1.54453e-16, cumulative = 5.18615e-14
ExecutionTime = 43.93 s  ClockTime = 45 s

Time = 0.5065

Courant Number mean: 0.00766147 max: 0.206934
diagonal:  Solving for rho, Initial residual = 0, Final residual = 0, No Iterations 0
PIMPLE: iteration 1
smoothSolver:  Solving for Ux, Initial residual = 0.000737606, Final residual = 1.31995e-16, No Iterations 3
smoothSolver:  Solving for Uy, Initial residual = 0.00228525, Final residual = 2.7554e-17, No Iterations 4
smoothSolver:  Solving for e, Initial residual = 0.00127843, Final residual = 1.44924e-14, No Iterations 1000
smoothSolver:  Solving for p, Initial residual = 0.00127103, Final residual = 1.25202e-13, No Iterations 1000
diagonal:  Solving for rho, Initial residual = 0, Final residual = 0, No Iterations 0
time step continuity errors : sum local = 5.26956e-15, global = 1.97778e-15, cumulative = 5.38393e-14
PIMPLE: iteration 2
smoothSolver:  Solving for Ux, Initial residual = 2.81218e-07, Final residual = 3.31718e-17, No Iterations 3
smoothSolver:  Solving for Uy, Initial residual = 5.96903e-07, Final residual = 3.01079e-17, No Iterations 3
smoothSolver:  Solving for e, Initial residual = 7.5421e-06, Final residual = 1.44604e-14, No Iterations 1000
smoothSolver:  Solving for p, Initial residual = 1.49267e-06, Final residual = 1.23662e-13, No Iterations 1000
diagonal:  Solving for rho, Initial residual = 0, Final residual = 0, No Iterations 0
time step continuity errors : sum local = 5.2889e-15, global = -1.94504e-16, cumulative = 5.36448e-14
ExecutionTime = 45.68 s  ClockTime = 47 s

Time = 0.50675

Courant Number mean: 0.00763563 max: 0.20575
diagonal:  Solving for rho, Initial residual = 0, Final residual = 0, No Iterations 0
PIMPLE: iteration 1
smoothSolver:  Solving for Ux, Initial residual = 0.000740386, Final residual = 1.30458e-16, No Iterations 3
smoothSolver:  Solving for Uy, Initial residual = 0.00229154, Final residual = 2.76855e-17, No Iterations 4
smoothSolver:  Solving for e, Initial residual = 0.00128267, Final residual = 1.48443e-14, No Iterations 1000
smoothSolver:  Solving for p, Initial residual = 0.00127529, Final residual = 1.22238e-13, No Iterations 1000
diagonal:  Solving for rho, Initial residual = 0, Final residual = 0, No Iterations 0
time step continuity errors : sum local = 5.32097e-15, global = 1.89894e-15, cumulative = 5.55438e-14
PIMPLE: iteration 2
smoothSolver:  Solving for Ux, Initial residual = 2.82237e-07, Final residual = 3.23512e-17, No Iterations 3
smoothSolver:  Solving for Uy, Initial residual = 6.06701e-07, Final residual = 2.92151e-17, No Iterations 3
smoothSolver:  Solving for e, Initial residual = 7.56305e-06, Final residual = 1.48499e-14, No Iterations 1000
smoothSolver:  Solving for p, Initial residual = 1.49784e-06, Final residual = 1.23235e-13, No Iterations 1000
diagonal:  Solving for rho, Initial residual = 0, Final residual = 0, No Iterations 0
time step continuity errors : sum local = 5.3473e-15, global = -1.38601e-16, cumulative = 5.54052e-14
ExecutionTime = 47.42 s  ClockTime = 48 s

Time = 0.507

Courant Number mean: 0.00760984 max: 0.204569
diagonal:  Solving for rho, Initial residual = 0, Final residual = 0, No Iterations 0
PIMPLE: iteration 1
smoothSolver:  Solving for Ux, Initial residual = 0.000743224, Final residual = 1.26518e-16, No Iterations 3
smoothSolver:  Solving for Uy, Initial residual = 0.00229772, Final residual = 2.78198e-17, No Iterations 4
smoothSolver:  Solving for e, Initial residual = 0.00128694, Final residual = 1.47332e-14, No Iterations 1000
smoothSolver:  Solving for p, Initial residual = 0.00127941, Final residual = 1.23741e-13, No Iterations 1000
diagonal:  Solving for rho, Initial residual = 0, Final residual = 0, No Iterations 0
time step continuity errors : sum local = 5.3148e-15, global = 1.95431e-15, cumulative = 5.73595e-14
PIMPLE: iteration 2
smoothSolver:  Solving for Ux, Initial residual = 2.80368e-07, Final residual = 3.17226e-17, No Iterations 3
smoothSolver:  Solving for Uy, Initial residual = 5.97835e-07, Final residual = 2.92931e-17, No Iterations 3
smoothSolver:  Solving for e, Initial residual = 7.57684e-06, Final residual = 1.49107e-14, No Iterations 1000
smoothSolver:  Solving for p, Initial residual = 1.49822e-06, Final residual = 1.23688e-13, No Iterations 1000
diagonal:  Solving for rho, Initial residual = 0, Final residual = 0, No Iterations 0
time step continuity errors : sum local = 5.35163e-15, global = -1.27741e-16, cumulative = 5.72317e-14
ExecutionTime = 49.15 s  ClockTime = 50 s

Time = 0.50725

Courant Number mean: 0.0075841 max: 0.203387
diagonal:  Solving for rho, Initial residual = 0, Final residual = 0, No Iterations 0
PIMPLE: iteration 1
smoothSolver:  Solving for Ux, Initial residual = 0.000746024, Final residual = 1.24405e-16, No Iterations 3
smoothSolver:  Solving for Uy, Initial residual = 0.00230394, Final residual = 2.86298e-17, No Iterations 4
smoothSolver:  Solving for e, Initial residual = 0.00129123, Final residual = 1.48671e-14, No Iterations 1000
smoothSolver:  Solving for p, Initial residual = 0.00128367, Final residual = 1.23898e-13, No Iterations 1000
diagonal:  Solving for rho, Initial residual = 0, Final residual = 0, No Iterations 0
time step continuity errors : sum local = 5.34657e-15, global = 1.96446e-15, cumulative = 5.91962e-14
PIMPLE: iteration 2
smoothSolver:  Solving for Ux, Initial residual = 2.81865e-07, Final residual = 3.14194e-17, No Iterations 3
smoothSolver:  Solving for Uy, Initial residual = 6.1024e-07, Final residual = 3.04142e-17, No Iterations 3
smoothSolver:  Solving for e, Initial residual = 7.60701e-06, Final residual = 1.47558e-14, No Iterations 1000
smoothSolver:  Solving for p, Initial residual = 1.50389e-06, Final residual = 1.26295e-13, No Iterations 1000
diagonal:  Solving for rho, Initial residual = 0, Final residual = 0, No Iterations 0
time step continuity errors : sum local = 5.28669e-15, global = -1.59359e-16, cumulative = 5.90368e-14
ExecutionTime = 50.9 s  ClockTime = 52 s

Time = 0.5075

Courant Number mean: 0.0075584 max: 0.202208
diagonal:  Solving for rho, Initial residual = 0, Final residual = 0, No Iterations 0
PIMPLE: iteration 1
smoothSolver:  Solving for Ux, Initial residual = 0.000748912, Final residual = 1.2206e-16, No Iterations 3
smoothSolver:  Solving for Uy, Initial residual = 0.00231002, Final residual = 2.88816e-17, No Iterations 4
smoothSolver:  Solving for e, Initial residual = 0.00129556, Final residual = 1.48733e-14, No Iterations 1000
smoothSolver:  Solving for p, Initial residual = 0.00128788, Final residual = 1.26255e-13, No Iterations 1000
diagonal:  Solving for rho, Initial residual = 0, Final residual = 0, No Iterations 0
time step continuity errors : sum local = 5.34805e-15, global = 2.01403e-15, cumulative = 6.10508e-14
PIMPLE: iteration 2
smoothSolver:  Solving for Ux, Initial residual = 2.79557e-07, Final residual = 3.10847e-17, No Iterations 3
smoothSolver:  Solving for Uy, Initial residual = 5.99535e-07, Final residual = 3.06655e-17, No Iterations 3
smoothSolver:  Solving for e, Initial residual = 7.61937e-06, Final residual = 1.49944e-14, No Iterations 1000
smoothSolver:  Solving for p, Initial residual = 1.50497e-06, Final residual = 1.25553e-13, No Iterations 1000
diagonal:  Solving for rho, Initial residual = 0, Final residual = 0, No Iterations 0
time step continuity errors : sum local = 5.3328e-15, global = -1.27059e-16, cumulative = 6.09238e-14
ExecutionTime = 52.65 s  ClockTime = 54 s

Time = 0.50775

Courant Number mean: 0.00753275 max: 0.201029
diagonal:  Solving for rho, Initial residual = 0, Final residual = 0, No Iterations 0
PIMPLE: iteration 1
smoothSolver:  Solving for Ux, Initial residual = 0.000751773, Final residual = 1.17741e-16, No Iterations 3
smoothSolver:  Solving for Uy, Initial residual = 0.00231616, Final residual = 2.75915e-17, No Iterations 4
smoothSolver:  Solving for e, Initial residual = 0.00129991, Final residual = 1.51578e-14, No Iterations 1000
smoothSolver:  Solving for p, Initial residual = 0.00129217, Final residual = 1.2591e-13, No Iterations 1000
diagonal:  Solving for rho, Initial residual = 0, Final residual = 0, No Iterations 0
time step continuity errors : sum local = 5.30852e-15, global = 1.96396e-15, cumulative = 6.28877e-14
PIMPLE: iteration 2
smoothSolver:  Solving for Ux, Initial residual = 2.81295e-07, Final residual = 3.16961e-17, No Iterations 3
smoothSolver:  Solving for Uy, Initial residual = 6.13012e-07, Final residual = 3.07246e-17, No Iterations 3
smoothSolver:  Solving for e, Initial residual = 7.65796e-06, Final residual = 1.52453e-14, No Iterations 1000
smoothSolver:  Solving for p, Initial residual = 1.51028e-06, Final residual = 1.26649e-13, No Iterations 1000
diagonal:  Solving for rho, Initial residual = 0, Final residual = 0, No Iterations 0
time step continuity errors : sum local = 5.24676e-15, global = -2.28275e-16, cumulative = 6.26595e-14
ExecutionTime = 54.4 s  ClockTime = 55 s

Time = 0.508

Courant Number mean: 0.00750714 max: 0.199852
diagonal:  Solving for rho, Initial residual = 0, Final residual = 0, No Iterations 0
PIMPLE: iteration 1
smoothSolver:  Solving for Ux, Initial residual = 0.000754706, Final residual = 1.16645e-16, No Iterations 3
smoothSolver:  Solving for Uy, Initial residual = 0.00232211, Final residual = 9.9409e-16, No Iterations 3
smoothSolver:  Solving for e, Initial residual = 0.00130429, Final residual = 1.51271e-14, No Iterations 1000
smoothSolver:  Solving for p, Initial residual = 0.00129645, Final residual = 1.25888e-13, No Iterations 1000
diagonal:  Solving for rho, Initial residual = 0, Final residual = 0, No Iterations 0
time step continuity errors : sum local = 5.3693e-15, global = 1.94364e-15, cumulative = 6.46031e-14
PIMPLE: iteration 2
smoothSolver:  Solving for Ux, Initial residual = 2.78638e-07, Final residual = 3.14186e-17, No Iterations 3
smoothSolver:  Solving for Uy, Initial residual = 6.00658e-07, Final residual = 2.82747e-17, No Iterations 3
smoothSolver:  Solving for e, Initial residual = 7.66253e-06, Final residual = 1.50587e-14, No Iterations 1000
smoothSolver:  Solving for p, Initial residual = 1.51188e-06, Final residual = 1.27476e-13, No Iterations 1000
diagonal:  Solving for rho, Initial residual = 0, Final residual = 0, No Iterations 0
time step continuity errors : sum local = 5.33691e-15, global = -1.72678e-16, cumulative = 6.44304e-14
ExecutionTime = 56.13 s  ClockTime = 57 s

Time = 0.50825

Courant Number mean: 0.00748159 max: 0.198675
diagonal:  Solving for rho, Initial residual = 0, Final residual = 0, No Iterations 0
PIMPLE: iteration 1
smoothSolver:  Solving for Ux, Initial residual = 0.000757586, Final residual = 1.14766e-16, No Iterations 3
smoothSolver:  Solving for Uy, Initial residual = 0.00232814, Final residual = 9.67003e-16, No Iterations 3
smoothSolver:  Solving for e, Initial residual = 0.0013087, Final residual = 1.51203e-14, No Iterations 1000
smoothSolver:  Solving for p, Initial residual = 0.00130076, Final residual = 1.25984e-13, No Iterations 1000
diagonal:  Solving for rho, Initial residual = 0, Final residual = 0, No Iterations 0
time step continuity errors : sum local = 5.36545e-15, global = 2.0129e-15, cumulative = 6.64433e-14
PIMPLE: iteration 2
smoothSolver:  Solving for Ux, Initial residual = 2.80728e-07, Final residual = 3.08112e-17, No Iterations 3
smoothSolver:  Solving for Uy, Initial residual = 6.15752e-07, Final residual = 2.94999e-17, No Iterations 3
smoothSolver:  Solving for e, Initial residual = 7.70865e-06, Final residual = 1.5324e-14, No Iterations 1000
smoothSolver:  Solving for p, Initial residual = 1.51578e-06, Final residual = 1.24372e-13, No Iterations 1000
diagonal:  Solving for rho, Initial residual = 0, Final residual = 0, No Iterations 0
time step continuity errors : sum local = 5.28602e-15, global = -9.50135e-17, cumulative = 6.63483e-14
ExecutionTime = 57.87 s  ClockTime = 59 s

Time = 0.5085

Courant Number mean: 0.00745607 max: 0.197501
diagonal:  Solving for rho, Initial residual = 0, Final residual = 0, No Iterations 0
PIMPLE: iteration 1
smoothSolver:  Solving for Ux, Initial residual = 0.000760534, Final residual = 1.1038e-16, No Iterations 3
smoothSolver:  Solving for Uy, Initial residual = 0.00233397, Final residual = 9.48292e-16, No Iterations 3
smoothSolver:  Solving for e, Initial residual = 0.00131314, Final residual = 1.50391e-14, No Iterations 1000
smoothSolver:  Solving for p, Initial residual = 0.00130514, Final residual = 1.26754e-13, No Iterations 1000
diagonal:  Solving for rho, Initial residual = 0, Final residual = 0, No Iterations 0
time step continuity errors : sum local = 5.31568e-15, global = 1.97901e-15, cumulative = 6.83273e-14
PIMPLE: iteration 2
smoothSolver:  Solving for Ux, Initial residual = 2.77771e-07, Final residual = 3.19876e-17, No Iterations 3
smoothSolver:  Solving for Uy, Initial residual = 6.02226e-07, Final residual = 2.9369e-17, No Iterations 3
smoothSolver:  Solving for e, Initial residual = 7.70863e-06, Final residual = 1.5365e-14, No Iterations 1000
smoothSolver:  Solving for p, Initial residual = 1.51877e-06, Final residual = 1.27501e-13, No Iterations 1000
diagonal:  Solving for rho, Initial residual = 0, Final residual = 0, No Iterations 0
time step continuity errors : sum local = 5.31244e-15, global = -1.2424e-16, cumulative = 6.82031e-14
ExecutionTime = 59.61 s  ClockTime = 61 s

Time = 0.50875

Courant Number mean: 0.0074306 max: 0.196326
diagonal:  Solving for rho, Initial residual = 0, Final residual = 0, No Iterations 0
PIMPLE: iteration 1
smoothSolver:  Solving for Ux, Initial residual = 0.000763436, Final residual = 1.08053e-16, No Iterations 3
smoothSolver:  Solving for Uy, Initial residual = 0.00233991, Final residual = 9.21838e-16, No Iterations 3
smoothSolver:  Solving for e, Initial residual = 0.00131762, Final residual = 1.52055e-14, No Iterations 1000
smoothSolver:  Solving for p, Initial residual = 0.00130948, Final residual = 1.26652e-13, No Iterations 1000
diagonal:  Solving for rho, Initial residual = 0, Final residual = 0, No Iterations 0
time step continuity errors : sum local = 5.32502e-15, global = 1.88515e-15, cumulative = 7.00882e-14
PIMPLE: iteration 2
smoothSolver:  Solving for Ux, Initial residual = 2.801e-07, Final residual = 3.13197e-17, No Iterations 3
smoothSolver:  Solving for Uy, Initial residual = 6.18105e-07, Final residual = 3.02653e-17, No Iterations 3
smoothSolver:  Solving for e, Initial residual = 7.75949e-06, Final residual = 1.50598e-14, No Iterations 1000
smoothSolver:  Solving for p, Initial residual = 1.52111e-06, Final residual = 1.25972e-13, No Iterations 1000
diagonal:  Solving for rho, Initial residual = 0, Final residual = 0, No Iterations 0
time step continuity errors : sum local = 5.30763e-15, global = -1.76552e-16, cumulative = 6.99117e-14
ExecutionTime = 61.37 s  ClockTime = 62 s

Time = 0.509

Courant Number mean: 0.00740517 max: 0.195155
diagonal:  Solving for rho, Initial residual = 0, Final residual = 0, No Iterations 0
PIMPLE: iteration 1
smoothSolver:  Solving for Ux, Initial residual = 0.000766416, Final residual = 1.04316e-16, No Iterations 3
smoothSolver:  Solving for Uy, Initial residual = 0.00234563, Final residual = 9.01964e-16, No Iterations 3
smoothSolver:  Solving for e, Initial residual = 0.00132214, Final residual = 1.52538e-14, No Iterations 1000
smoothSolver:  Solving for p, Initial residual = 0.00131395, Final residual = 1.27939e-13, No Iterations 1000
diagonal:  Solving for rho, Initial residual = 0, Final residual = 0, No Iterations 0
time step continuity errors : sum local = 5.352e-15, global = 1.9283e-15, cumulative = 7.184e-14
PIMPLE: iteration 2
smoothSolver:  Solving for Ux, Initial residual = 2.76936e-07, Final residual = 3.15956e-17, No Iterations 3
smoothSolver:  Solving for Uy, Initial residual = 6.03681e-07, Final residual = 2.87171e-17, No Iterations 3
smoothSolver:  Solving for e, Initial residual = 7.7552e-06, Final residual = 1.52524e-14, No Iterations 1000
smoothSolver:  Solving for p, Initial residual = 1.52539e-06, Final residual = 1.28298e-13, No Iterations 1000
diagonal:  Solving for rho, Initial residual = 0, Final residual = 0, No Iterations 0
time step continuity errors : sum local = 5.30985e-15, global = -1.48402e-16, cumulative = 7.16916e-14
ExecutionTime = 63.16 s  ClockTime = 64 s

Time = 0.50925

Courant Number mean: 0.00737979 max: 0.193982
diagonal:  Solving for rho, Initial residual = 0, Final residual = 0, No Iterations 0
PIMPLE: iteration 1
smoothSolver:  Solving for Ux, Initial residual = 0.000769353, Final residual = 1.04589e-16, No Iterations 3
smoothSolver:  Solving for Uy, Initial residual = 0.00235148, Final residual = 8.76797e-16, No Iterations 3
smoothSolver:  Solving for e, Initial residual = 0.00132669, Final residual = 1.52202e-14, No Iterations 1000
smoothSolver:  Solving for p, Initial residual = 0.00131833, Final residual = 1.26979e-13, No Iterations 1000
diagonal:  Solving for rho, Initial residual = 0, Final residual = 0, No Iterations 0
time step continuity errors : sum local = 5.32021e-15, global = 1.95074e-15, cumulative = 7.36423e-14
PIMPLE: iteration 2
smoothSolver:  Solving for Ux, Initial residual = 2.79454e-07, Final residual = 3.27534e-17, No Iterations 3
smoothSolver:  Solving for Uy, Initial residual = 6.20563e-07, Final residual = 2.95616e-17, No Iterations 3
smoothSolver:  Solving for e, Initial residual = 7.81264e-06, Final residual = 1.53146e-14, No Iterations 1000
smoothSolver:  Solving for p, Initial residual = 1.52653e-06, Final residual = 1.25933e-13, No Iterations 1000
diagonal:  Solving for rho, Initial residual = 0, Final residual = 0, No Iterations 0
time step continuity errors : sum local = 5.31858e-15, global = -1.16914e-16, cumulative = 7.35254e-14
ExecutionTime = 64.91 s  ClockTime = 66 s

Time = 0.5095

Courant Number mean: 0.00735444 max: 0.192814
diagonal:  Solving for rho, Initial residual = 0, Final residual = 0, No Iterations 0
PIMPLE: iteration 1
smoothSolver:  Solving for Ux, Initial residual = 0.000772369, Final residual = 1.01929e-16, No Iterations 3
smoothSolver:  Solving for Uy, Initial residual = 0.00235709, Final residual = 8.59835e-16, No Iterations 3
smoothSolver:  Solving for e, Initial residual = 0.00133128, Final residual = 1.53613e-14, No Iterations 1000
smoothSolver:  Solving for p, Initial residual = 0.00132289, Final residual = 1.26688e-13, No Iterations 1000
diagonal:  Solving for rho, Initial residual = 0, Final residual = 0, No Iterations 0
time step continuity errors : sum local = 5.33086e-15, global = 1.90789e-15, cumulative = 7.54333e-14
PIMPLE: iteration 2
smoothSolver:  Solving for Ux, Initial residual = 2.76248e-07, Final residual = 3.0116e-17, No Iterations 3
smoothSolver:  Solving for Uy, Initial residual = 6.05599e-07, Final residual = 2.91258e-17, No Iterations 3
smoothSolver:  Solving for e, Initial residual = 7.80108e-06, Final residual = 1.5495e-14, No Iterations 1000
smoothSolver:  Solving for p, Initial residual = 1.53137e-06, Final residual = 1.28159e-13, No Iterations 1000
diagonal:  Solving for rho, Initial residual = 0, Final residual = 0, No Iterations 0
time step continuity errors : sum local = 5.31857e-15, global = -2.57211e-16, cumulative = 7.51761e-14
ExecutionTime = 66.65 s  ClockTime = 68 s

Time = 0.50975

Courant Number mean: 0.00732914 max: 0.191645
diagonal:  Solving for rho, Initial residual = 0, Final residual = 0, No Iterations 0
PIMPLE: iteration 1
smoothSolver:  Solving for Ux, Initial residual = 0.000775338, Final residual = 9.96594e-17, No Iterations 3
smoothSolver:  Solving for Uy, Initial residual = 0.00236283, Final residual = 8.34075e-16, No Iterations 3
smoothSolver:  Solving for e, Initial residual = 0.0013359, Final residual = 1.56739e-14, No Iterations 1000
smoothSolver:  Solving for p, Initial residual = 0.00132731, Final residual = 1.28569e-13, No Iterations 1000
diagonal:  Solving for rho, Initial residual = 0, Final residual = 0, No Iterations 0
time step continuity errors : sum local = 5.35228e-15, global = 1.85966e-15, cumulative = 7.70358e-14
PIMPLE: iteration 2
smoothSolver:  Solving for Ux, Initial residual = 2.78866e-07, Final residual = 3.11745e-17, No Iterations 3
smoothSolver:  Solving for Uy, Initial residual = 6.23186e-07, Final residual = 3.04083e-17, No Iterations 3
smoothSolver:  Solving for e, Initial residual = 7.8646e-06, Final residual = 1.54351e-14, No Iterations 1000
smoothSolver:  Solving for p, Initial residual = 1.53155e-06, Final residual = 1.29095e-13, No Iterations 1000
diagonal:  Solving for rho, Initial residual = 0, Final residual = 0, No Iterations 0
time step continuity errors : sum local = 5.33797e-15, global = -1.12083e-16, cumulative = 7.69237e-14
ExecutionTime = 68.38 s  ClockTime = 69 s

Time = 0.51

Courant Number mean: 0.00730389 max: 0.19048
diagonal:  Solving for rho, Initial residual = 0, Final residual = 0, No Iterations 0
PIMPLE: iteration 1
smoothSolver:  Solving for Ux, Initial residual = 0.000778384, Final residual = 9.83907e-17, No Iterations 3
smoothSolver:  Solving for Uy, Initial residual = 0.00236831, Final residual = 8.17857e-16, No Iterations 3
smoothSolver:  Solving for e, Initial residual = 0.00134057, Final residual = 1.54764e-14, No Iterations 1000
smoothSolver:  Solving for p, Initial residual = 0.00133196, Final residual = 1.30793e-13, No Iterations 1000
diagonal:  Solving for rho, Initial residual = 0, Final residual = 0, No Iterations 0
time step continuity errors : sum local = 5.33901e-15, global = 1.89272e-15, cumulative = 7.88164e-14
PIMPLE: iteration 2
smoothSolver:  Solving for Ux, Initial residual = 2.75314e-07, Final residual = 3.15234e-17, No Iterations 3
smoothSolver:  Solving for Uy, Initial residual = 6.06503e-07, Final residual = 2.85186e-17, No Iterations 3
smoothSolver:  Solving for e, Initial residual = 7.85032e-06, Final residual = 1.51894e-14, No Iterations 1000
smoothSolver:  Solving for p, Initial residual = 1.53681e-06, Final residual = 1.30339e-13, No Iterations 1000
diagonal:  Solving for rho, Initial residual = 0, Final residual = 0, No Iterations 0
time step continuity errors : sum local = 5.24629e-15, global = -2.62623e-16, cumulative = 7.85538e-14
ExecutionTime = 70.16 s  ClockTime = 71 s

writeRegisteredObject rhofunc output:
    writing object rho

    writing object phi

Time = 0.51025

Courant Number mean: 0.00727867 max: 0.189314
diagonal:  Solving for rho, Initial residual = 0, Final residual = 0, No Iterations 0
PIMPLE: iteration 1
smoothSolver:  Solving for Ux, Initial residual = 0.000781387, Final residual = 9.4869e-17, No Iterations 3
smoothSolver:  Solving for Uy, Initial residual = 0.00237394, Final residual = 7.94728e-16, No Iterations 3
smoothSolver:  Solving for e, Initial residual = 0.00134526, Final residual = 1.564e-14, No Iterations 1000
smoothSolver:  Solving for p, Initial residual = 0.00133643, Final residual = 1.31236e-13, No Iterations 1000
diagonal:  Solving for rho, Initial residual = 0, Final residual = 0, No Iterations 0
time step continuity errors : sum local = 5.33715e-15, global = 1.85117e-15, cumulative = 8.0405e-14
PIMPLE: iteration 2
smoothSolver:  Solving for Ux, Initial residual = 2.78308e-07, Final residual = 3.1679e-17, No Iterations 3
smoothSolver:  Solving for Uy, Initial residual = 6.25979e-07, Final residual = 3.04572e-17, No Iterations 3
smoothSolver:  Solving for e, Initial residual = 7.92644e-06, Final residual = 1.55512e-14, No Iterations 1000
smoothSolver:  Solving for p, Initial residual = 1.53717e-06, Final residual = 1.31469e-13, No Iterations 1000
diagonal:  Solving for rho, Initial residual = 0, Final residual = 0, No Iterations 0
time step continuity errors : sum local = 5.3194e-15, global = -1.31953e-16, cumulative = 8.0273e-14
ExecutionTime = 71.93 s  ClockTime = 73 s

Time = 0.5105

Courant Number mean: 0.0072535 max: 0.188153
diagonal:  Solving for rho, Initial residual = 0, Final residual = 0, No Iterations 0
PIMPLE: iteration 1
smoothSolver:  Solving for Ux, Initial residual = 0.000784472, Final residual = 9.40216e-17, No Iterations 3
smoothSolver:  Solving for Uy, Initial residual = 0.00237928, Final residual = 7.79097e-16, No Iterations 3
smoothSolver:  Solving for e, Initial residual = 0.00135, Final residual = 1.56488e-14, No Iterations 1000
smoothSolver:  Solving for p, Initial residual = 0.00134114, Final residual = 1.31326e-13, No Iterations 1000
diagonal:  Solving for rho, Initial residual = 0, Final residual = 0, No Iterations 0
time step continuity errors : sum local = 5.35636e-15, global = 1.75725e-15, cumulative = 8.20302e-14
PIMPLE: iteration 2
smoothSolver:  Solving for Ux, Initial residual = 2.74273e-07, Final residual = 3.12602e-17, No Iterations 3
smoothSolver:  Solving for Uy, Initial residual = 6.06813e-07, Final residual = 2.96636e-17, No Iterations 3
smoothSolver:  Solving for e, Initial residual = 7.90778e-06, Final residual = 1.57107e-14, No Iterations 1000
smoothSolver:  Solving for p, Initial residual = 1.54204e-06, Final residual = 1.29845e-13, No Iterations 1000
diagonal:  Solving for rho, Initial residual = 0, Final residual = 0, No Iterations 0
time step continuity errors : sum local = 5.30223e-15, global = -1.42701e-16, cumulative = 8.18875e-14
ExecutionTime = 73.7 s  ClockTime = 75 s

Time = 0.51075

Courant Number mean: 0.00722837 max: 0.186989
diagonal:  Solving for rho, Initial residual = 0, Final residual = 0, No Iterations 0
PIMPLE: iteration 1
smoothSolver:  Solving for Ux, Initial residual = 0.000787504, Final residual = 9.07217e-17, No Iterations 3
smoothSolver:  Solving for Uy, Initial residual = 0.00238478, Final residual = 7.54165e-16, No Iterations 3
smoothSolver:  Solving for e, Initial residual = 0.00135477, Final residual = 1.55155e-14, No Iterations 1000
smoothSolver:  Solving for p, Initial residual = 0.00134571, Final residual = 1.30472e-13, No Iterations 1000
diagonal:  Solving for rho, Initial residual = 0, Final residual = 0, No Iterations 0
time step continuity errors : sum local = 5.34075e-15, global = 1.75439e-15, cumulative = 8.36419e-14
PIMPLE: iteration 2
smoothSolver:  Solving for Ux, Initial residual = 2.77431e-07, Final residual = 3.13543e-17, No Iterations 3
smoothSolver:  Solving for Uy, Initial residual = 6.2706e-07, Final residual = 2.99646e-17, No Iterations 3
smoothSolver:  Solving for e, Initial residual = 7.9873e-06, Final residual = 1.54446e-14, No Iterations 1000
smoothSolver:  Solving for p, Initial residual = 1.54212e-06, Final residual = 1.32242e-13, No Iterations 1000
diagonal:  Solving for rho, Initial residual = 0, Final residual = 0, No Iterations 0
time step continuity errors : sum local = 5.32637e-15, global = -4.95562e-17, cumulative = 8.35924e-14
ExecutionTime = 75.45 s  ClockTime = 77 s

Time = 0.511

Courant Number mean: 0.00720329 max: 0.185832
diagonal:  Solving for rho, Initial residual = 0, Final residual = 0, No Iterations 0
PIMPLE: iteration 1
smoothSolver:  Solving for Ux, Initial residual = 0.000790611, Final residual = 8.97253e-17, No Iterations 3
smoothSolver:  Solving for Uy, Initial residual = 0.00238998, Final residual = 7.38185e-16, No Iterations 3
smoothSolver:  Solving for e, Initial residual = 0.0013596, Final residual = 1.55742e-14, No Iterations 1000
smoothSolver:  Solving for p, Initial residual = 0.00135054, Final residual = 1.32679e-13, No Iterations 1000
diagonal:  Solving for rho, Initial residual = 0, Final residual = 0, No Iterations 0
time step continuity errors : sum local = 5.31487e-15, global = 1.75046e-15, cumulative = 8.53428e-14
PIMPLE: iteration 2
smoothSolver:  Solving for Ux, Initial residual = 2.73104e-07, Final residual = 3.04613e-17, No Iterations 3
smoothSolver:  Solving for Uy, Initial residual = 6.06659e-07, Final residual = 2.92143e-17, No Iterations 3
smoothSolver:  Solving for e, Initial residual = 7.96408e-06, Final residual = 1.55612e-14, No Iterations 1000
smoothSolver:  Solving for p, Initial residual = 1.54637e-06, Final residual = 1.29905e-13, No Iterations 1000
diagonal:  Solving for rho, Initial residual = 0, Final residual = 0, No Iterations 0
time step continuity errors : sum local = 5.31092e-15, global = -1.48079e-16, cumulative = 8.51948e-14
ExecutionTime = 77.19 s  ClockTime = 78 s

Time = 0.51125

Courant Number mean: 0.00717825 max: 0.184672
diagonal:  Solving for rho, Initial residual = 0, Final residual = 0, No Iterations 0
PIMPLE: iteration 1
smoothSolver:  Solving for Ux, Initial residual = 0.000793667, Final residual = 8.74719e-17, No Iterations 3
smoothSolver:  Solving for Uy, Initial residual = 0.00239536, Final residual = 7.15811e-16, No Iterations 3
smoothSolver:  Solving for e, Initial residual = 0.00136449, Final residual = 1.57253e-14, No Iterations 1000
smoothSolver:  Solving for p, Initial residual = 0.00135526, Final residual = 1.31349e-13, No Iterations 1000
diagonal:  Solving for rho, Initial residual = 0, Final residual = 0, No Iterations 0
time step continuity errors : sum local = 5.32535e-15, global = 1.71766e-15, cumulative = 8.69124e-14
PIMPLE: iteration 2
smoothSolver:  Solving for Ux, Initial residual = 2.76545e-07, Final residual = 3.10425e-17, No Iterations 3
smoothSolver:  Solving for Uy, Initial residual = 6.27479e-07, Final residual = 3.01202e-17, No Iterations 3
smoothSolver:  Solving for e, Initial residual = 8.04536e-06, Final residual = 1.569e-14, No Iterations 1000
smoothSolver:  Solving for p, Initial residual = 1.54536e-06, Final residual = 1.31657e-13, No Iterations 1000
diagonal:  Solving for rho, Initial residual = 0, Final residual = 0, No Iterations 0
time step continuity errors : sum local = 5.19323e-15, global = -6.94343e-17, cumulative = 8.6843e-14
ExecutionTime = 78.94 s  ClockTime = 80 s

Time = 0.5115

Courant Number mean: 0.00715326 max: 0.183518
diagonal:  Solving for rho, Initial residual = 0, Final residual = 0, No Iterations 0
PIMPLE: iteration 1
smoothSolver:  Solving for Ux, Initial residual = 0.000796795, Final residual = 8.46691e-17, No Iterations 3
smoothSolver:  Solving for Uy, Initial residual = 0.00240042, Final residual = 7.02441e-16, No Iterations 3
smoothSolver:  Solving for e, Initial residual = 0.00136945, Final residual = 1.60193e-14, No Iterations 1000
smoothSolver:  Solving for p, Initial residual = 0.00136015, Final residual = 1.32654e-13, No Iterations 1000
diagonal:  Solving for rho, Initial residual = 0, Final residual = 0, No Iterations 0
time step continuity errors : sum local = 5.28256e-15, global = 1.65401e-15, cumulative = 8.8497e-14
PIMPLE: iteration 2
smoothSolver:  Solving for Ux, Initial residual = 2.72005e-07, Final residual = 3.14885e-17, No Iterations 3
smoothSolver:  Solving for Uy, Initial residual = 6.055e-07, Final residual = 2.87465e-17, No Iterations 3
smoothSolver:  Solving for e, Initial residual = 8.01757e-06, Final residual = 1.56995e-14, No Iterations 1000
smoothSolver:  Solving for p, Initial residual = 1.54953e-06, Final residual = 1.31471e-13, No Iterations 1000
diagonal:  Solving for rho, Initial residual = 0, Final residual = 0, No Iterations 0
time step continuity errors : sum local = 5.31373e-15, global = -8.21364e-17, cumulative = 8.84149e-14
ExecutionTime = 80.68 s  ClockTime = 82 s

Time = 0.51175

Courant Number mean: 0.00712832 max: 0.182361
diagonal:  Solving for rho, Initial residual = 0, Final residual = 0, No Iterations 0
PIMPLE: iteration 1
smoothSolver:  Solving for Ux, Initial residual = 0.000799868, Final residual = 8.50896e-17, No Iterations 3
smoothSolver:  Solving for Uy, Initial residual = 0.00240565, Final residual = 6.80452e-16, No Iterations 3
smoothSolver:  Solving for e, Initial residual = 0.00137446, Final residual = 1.58018e-14, No Iterations 1000
smoothSolver:  Solving for p, Initial residual = 0.00136497, Final residual = 1.33988e-13, No Iterations 1000
diagonal:  Solving for rho, Initial residual = 0, Final residual = 0, No Iterations 0
time step continuity errors : sum local = 5.30326e-15, global = 1.60378e-15, cumulative = 9.00186e-14
PIMPLE: iteration 2
smoothSolver:  Solving for Ux, Initial residual = 2.75597e-07, Final residual = 3.0114e-17, No Iterations 3
smoothSolver:  Solving for Uy, Initial residual = 6.26738e-07, Final residual = 2.92013e-17, No Iterations 3
smoothSolver:  Solving for e, Initial residual = 8.0944e-06, Final residual = 1.57285e-14, No Iterations 1000
smoothSolver:  Solving for p, Initial residual = 1.54871e-06, Final residual = 1.31903e-13, No Iterations 1000
diagonal:  Solving for rho, Initial residual = 0, Final residual = 0, No Iterations 0
time step continuity errors : sum local = 5.26374e-15, global = -1.81609e-17, cumulative = 9.00005e-14
ExecutionTime = 82.46 s  ClockTime = 84 s

Time = 0.512

Courant Number mean: 0.00710342 max: 0.181212
diagonal:  Solving for rho, Initial residual = 0, Final residual = 0, No Iterations 0
PIMPLE: iteration 1
smoothSolver:  Solving for Ux, Initial residual = 0.000803006, Final residual = 8.17213e-17, No Iterations 3
smoothSolver:  Solving for Uy, Initial residual = 0.00241058, Final residual = 6.67663e-16, No Iterations 3
smoothSolver:  Solving for e, Initial residual = 0.0013795, Final residual = 1.60551e-14, No Iterations 1000
smoothSolver:  Solving for p, Initial residual = 0.00136992, Final residual = 1.34674e-13, No Iterations 1000
diagonal:  Solving for rho, Initial residual = 0, Final residual = 0, No Iterations 0
time step continuity errors : sum local = 5.36231e-15, global = 1.68594e-15, cumulative = 9.16864e-14
PIMPLE: iteration 2
smoothSolver:  Solving for Ux, Initial residual = 2.70974e-07, Final residual = 3.17564e-17, No Iterations 3
smoothSolver:  Solving for Uy, Initial residual = 6.0421e-07, Final residual = 2.94131e-17, No Iterations 3
smoothSolver:  Solving for e, Initial residual = 8.06534e-06, Final residual = 1.58962e-14, No Iterations 1000
smoothSolver:  Solving for p, Initial residual = 1.55305e-06, Final residual = 1.3344e-13, No Iterations 1000
diagonal:  Solving for rho, Initial residual = 0, Final residual = 0, No Iterations 0
time step continuity errors : sum local = 5.29964e-15, global = -4.97875e-17, cumulative = 9.16366e-14
ExecutionTime = 84.2 s  ClockTime = 86 s

Time = 0.51225

Courant Number mean: 0.00707857 max: 0.180058
diagonal:  Solving for rho, Initial residual = 0, Final residual = 0, No Iterations 0
PIMPLE: iteration 1
smoothSolver:  Solving for Ux, Initial residual = 0.000806093, Final residual = 8.07124e-17, No Iterations 3
smoothSolver:  Solving for Uy, Initial residual = 0.00241567, Final residual = 6.46201e-16, No Iterations 3
smoothSolver:  Solving for e, Initial residual = 0.00138457, Final residual = 1.59214e-14, No Iterations 1000
smoothSolver:  Solving for p, Initial residual = 0.00137483, Final residual = 1.31722e-13, No Iterations 1000
diagonal:  Solving for rho, Initial residual = 0, Final residual = 0, No Iterations 0
time step continuity errors : sum local = 5.25709e-15, global = 1.71094e-15, cumulative = 9.33476e-14
PIMPLE: iteration 2
smoothSolver:  Solving for Ux, Initial residual = 2.74454e-07, Final residual = 3.10311e-17, No Iterations 3
smoothSolver:  Solving for Uy, Initial residual = 6.24674e-07, Final residual = 3.01439e-17, No Iterations 3
smoothSolver:  Solving for e, Initial residual = 8.13902e-06, Final residual = 1.58938e-14, No Iterations 1000
smoothSolver:  Solving for p, Initial residual = 1.55283e-06, Final residual = 1.34147e-13, No Iterations 1000
diagonal:  Solving for rho, Initial residual = 0, Final residual = 0, No Iterations 0
time step continuity errors : sum local = 5.33594e-15, global = -2.28446e-16, cumulative = 9.31191e-14
ExecutionTime = 85.94 s  ClockTime = 88 s

Time = 0.5125

Courant Number mean: 0.00705376 max: 0.178913
diagonal:  Solving for rho, Initial residual = 0, Final residual = 0, No Iterations 0
PIMPLE: iteration 1
smoothSolver:  Solving for Ux, Initial residual = 0.000809245, Final residual = 7.81226e-17, No Iterations 3
smoothSolver:  Solving for Uy, Initial residual = 0.00242043, Final residual = 6.3271e-16, No Iterations 3
smoothSolver:  Solving for e, Initial residual = 0.00138966, Final residual = 1.58928e-14, No Iterations 1000
smoothSolver:  Solving for p, Initial residual = 0.00137983, Final residual = 1.35204e-13, No Iterations 1000
diagonal:  Solving for rho, Initial residual = 0, Final residual = 0, No Iterations 0
time step continuity errors : sum local = 5.30421e-15, global = 1.66715e-15, cumulative = 9.47863e-14
PIMPLE: iteration 2
smoothSolver:  Solving for Ux, Initial residual = 2.70113e-07, Final residual = 3.10197e-17, No Iterations 3
smoothSolver:  Solving for Uy, Initial residual = 6.03477e-07, Final residual = 2.80512e-17, No Iterations 3
smoothSolver:  Solving for e, Initial residual = 8.11025e-06, Final residual = 1.61436e-14, No Iterations 1000
smoothSolver:  Solving for p, Initial residual = 1.55693e-06, Final residual = 1.3446e-13, No Iterations 1000
diagonal:  Solving for rho, Initial residual = 0, Final residual = 0, No Iterations 0
time step continuity errors : sum local = 5.38991e-15, global = -9.96296e-17, cumulative = 9.46866e-14
ExecutionTime = 87.8 s  ClockTime = 90 s

Time = 0.51275

Courant Number mean: 0.00702901 max: 0.177763
diagonal:  Solving for rho, Initial residual = 0, Final residual = 0, No Iterations 0
PIMPLE: iteration 1
smoothSolver:  Solving for Ux, Initial residual = 0.000812379, Final residual = 7.79113e-17, No Iterations 3
smoothSolver:  Solving for Uy, Initial residual = 0.00242536, Final residual = 6.12063e-16, No Iterations 3
smoothSolver:  Solving for e, Initial residual = 0.00139478, Final residual = 1.60098e-14, No Iterations 1000
smoothSolver:  Solving for p, Initial residual = 0.00138484, Final residual = 1.34335e-13, No Iterations 1000
diagonal:  Solving for rho, Initial residual = 0, Final residual = 0, No Iterations 0
time step continuity errors : sum local = 5.28803e-15, global = 1.65033e-15, cumulative = 9.6337e-14
PIMPLE: iteration 2
smoothSolver:  Solving for Ux, Initial residual = 2.7353e-07, Final residual = 3.16433e-17, No Iterations 3
smoothSolver:  Solving for Uy, Initial residual = 6.22379e-07, Final residual = 2.87178e-17, No Iterations 3
smoothSolver:  Solving for e, Initial residual = 8.18461e-06, Final residual = 1.5989e-14, No Iterations 1000
smoothSolver:  Solving for p, Initial residual = 1.55762e-06, Final residual = 1.3521e-13, No Iterations 1000
diagonal:  Solving for rho, Initial residual = 0, Final residual = 0, No Iterations 0
time step continuity errors : sum local = 5.32069e-15, global = -1.74089e-16, cumulative = 9.61629e-14
ExecutionTime = 89.64 s  ClockTime = 92 s

Time = 0.513

Courant Number mean: 0.0070043 max: 0.176622
diagonal:  Solving for rho, Initial residual = 0, Final residual = 0, No Iterations 0
PIMPLE: iteration 1
smoothSolver:  Solving for Ux, Initial residual = 0.000815593, Final residual = 7.5138e-17, No Iterations 3
smoothSolver:  Solving for Uy, Initial residual = 0.00242999, Final residual = 5.99095e-16, No Iterations 3
smoothSolver:  Solving for e, Initial residual = 0.00139992, Final residual = 1.61358e-14, No Iterations 1000
smoothSolver:  Solving for p, Initial residual = 0.00138989, Final residual = 1.37263e-13, No Iterations 1000
diagonal:  Solving for rho, Initial residual = 0, Final residual = 0, No Iterations 0
time step continuity errors : sum local = 5.34588e-15, global = 1.64367e-15, cumulative = 9.78066e-14
PIMPLE: iteration 2
smoothSolver:  Solving for Ux, Initial residual = 2.69638e-07, Final residual = 3.04276e-17, No Iterations 3
smoothSolver:  Solving for Uy, Initial residual = 6.02806e-07, Final residual = 2.90574e-17, No Iterations 3
smoothSolver:  Solving for e, Initial residual = 8.15969e-06, Final residual = 1.59916e-14, No Iterations 1000
smoothSolver:  Solving for p, Initial residual = 1.56123e-06, Final residual = 1.34875e-13, No Iterations 1000
diagonal:  Solving for rho, Initial residual = 0, Final residual = 0, No Iterations 0
time step continuity errors : sum local = 5.26889e-15, global = -1.33455e-16, cumulative = 9.76731e-14
ExecutionTime = 91.39 s  ClockTime = 94 s

Time = 0.51325

Courant Number mean: 0.00697964 max: 0.175476
diagonal:  Solving for rho, Initial residual = 0, Final residual = 0, No Iterations 0
PIMPLE: iteration 1
smoothSolver:  Solving for Ux, Initial residual = 0.000818789, Final residual = 7.31456e-17, No Iterations 3
smoothSolver:  Solving for Uy, Initial residual = 0.00243476, Final residual = 5.80525e-16, No Iterations 3
smoothSolver:  Solving for e, Initial residual = 0.00140509, Final residual = 1.62682e-14, No Iterations 1000
smoothSolver:  Solving for p, Initial residual = 0.00139496, Final residual = 1.35001e-13, No Iterations 1000
diagonal:  Solving for rho, Initial residual = 0, Final residual = 0, No Iterations 0
time step continuity errors : sum local = 5.33519e-15, global = 1.5973e-15, cumulative = 9.92704e-14
PIMPLE: iteration 2
smoothSolver:  Solving for Ux, Initial residual = 2.72268e-07, Final residual = 2.94741e-17, No Iterations 3
smoothSolver:  Solving for Uy, Initial residual = 6.19328e-07, Final residual = 3.06007e-17, No Iterations 3
smoothSolver:  Solving for e, Initial residual = 8.22347e-06, Final residual = 1.62907e-14, No Iterations 1000
[...]
smoothSolver:  Solving for p, Initial residual = 0.00321887, Final residual = 2.87934e-13, No Iterations 1000
diagonal:  Solving for rho, Initial residual = 0, Final residual = 0, No Iterations 0
time step continuity errors : sum local = 5.32674e-15, global = 1.65099e-15, cumulative = 7.20285e-13
PIMPLE: iteration 2
smoothSolver:  Solving for Ux, Initial residual = 3.7046e-07, Final residual = 1.93946e-16, No Iterations 2
smoothSolver:  Solving for Uy, Initial residual = 4.8868e-07, Final residual = 3.46278e-17, No Iterations 3
smoothSolver:  Solving for e, Initial residual = 1.23279e-05, Final residual = 3.26286e-14, No Iterations 1000
smoothSolver:  Solving for p, Initial residual = 2.27284e-06, Final residual = 2.87492e-13, No Iterations 1000
diagonal:  Solving for rho, Initial residual = 0, Final residual = 0, No Iterations 0
time step continuity errors : sum local = 5.30655e-15, global = 5.66612e-16, cumulative = 7.20851e-13
ExecutionTime = 721.96 s  ClockTime = 748 s

Time = 0.602

Courant Number mean: 0.00425466 max: 0.093425
diagonal:  Solving for rho, Initial residual = 0, Final residual = 0, No Iterations 0
PIMPLE: iteration 1
smoothSolver:  Solving for Ux, Initial residual = 0.00104499, Final residual = 3.22253e-17, No Iterations 3
smoothSolver:  Solving for Uy, Initial residual = 0.00173464, Final residual = 5.63921e-17, No Iterations 3
smoothSolver:  Solving for e, Initial residual = 0.00312774, Final residual = 3.23902e-14, No Iterations 1000
smoothSolver:  Solving for p, Initial residual = 0.00319064, Final residual = 2.86969e-13, No Iterations 1000
diagonal:  Solving for rho, Initial residual = 0, Final residual = 0, No Iterations 0
time step continuity errors : sum local = 5.37302e-15, global = 1.6201e-15, cumulative = 7.22471e-13
PIMPLE: iteration 2
smoothSolver:  Solving for Ux, Initial residual = 3.70578e-07, Final residual = 1.95845e-16, No Iterations 2
smoothSolver:  Solving for Uy, Initial residual = 4.8612e-07, Final residual = 3.47133e-17, No Iterations 3
smoothSolver:  Solving for e, Initial residual = 1.22994e-05, Final residual = 3.23773e-14, No Iterations 1000
smoothSolver:  Solving for p, Initial residual = 2.26455e-06, Final residual = 2.82408e-13, No Iterations 1000
diagonal:  Solving for rho, Initial residual = 0, Final residual = 0, No Iterations 0
time step continuity errors : sum local = 5.31532e-15, global = 4.12828e-16, cumulative = 7.22884e-13
ExecutionTime = 723.74 s  ClockTime = 750 s

Time = 0.60225

Courant Number mean: 0.0042676 max: 0.09347
diagonal:  Solving for rho, Initial residual = 0, Final residual = 0, No Iterations 0
PIMPLE: iteration 1
smoothSolver:  Solving for Ux, Initial residual = 0.00104915, Final residual = 3.20015e-17, No Iterations 3
smoothSolver:  Solving for Uy, Initial residual = 0.00174779, Final residual = 5.53343e-17, No Iterations 3
smoothSolver:  Solving for e, Initial residual = 0.00310122, Final residual = 3.22242e-14, No Iterations 1000
smoothSolver:  Solving for p, Initial residual = 0.00316294, Final residual = 2.83728e-13, No Iterations 1000
diagonal:  Solving for rho, Initial residual = 0, Final residual = 0, No Iterations 0
time step continuity errors : sum local = 5.32477e-15, global = 1.60407e-15, cumulative = 7.24488e-13
PIMPLE: iteration 2
smoothSolver:  Solving for Ux, Initial residual = 3.70231e-07, Final residual = 1.98935e-16, No Iterations 2
smoothSolver:  Solving for Uy, Initial residual = 4.93301e-07, Final residual = 3.42653e-17, No Iterations 3
smoothSolver:  Solving for e, Initial residual = 1.22773e-05, Final residual = 3.22366e-14, No Iterations 1000
smoothSolver:  Solving for p, Initial residual = 2.26244e-06, Final residual = 2.78986e-13, No Iterations 1000
diagonal:  Solving for rho, Initial residual = 0, Final residual = 0, No Iterations 0
time step continuity errors : sum local = 5.25092e-15, global = 4.72437e-16, cumulative = 7.24961e-13
ExecutionTime = 725.59 s  ClockTime = 752 s

Time = 0.6025

Courant Number mean: 0.00428063 max: 0.0935137
diagonal:  Solving for rho, Initial residual = 0, Final residual = 0, No Iterations 0
PIMPLE: iteration 1
smoothSolver:  Solving for Ux, Initial residual = 0.00105319, Final residual = 3.11605e-17, No Iterations 3
smoothSolver:  Solving for Uy, Initial residual = 0.00176092, Final residual = 5.65131e-17, No Iterations 3
smoothSolver:  Solving for e, Initial residual = 0.00307519, Final residual = 3.21955e-14, No Iterations 1000
smoothSolver:  Solving for p, Initial residual = 0.0031358, Final residual = 2.80087e-13, No Iterations 1000
diagonal:  Solving for rho, Initial residual = 0, Final residual = 0, No Iterations 0
time step continuity errors : sum local = 5.3153e-15, global = 1.55249e-15, cumulative = 7.26513e-13
PIMPLE: iteration 2
smoothSolver:  Solving for Ux, Initial residual = 3.69926e-07, Final residual = 2.02647e-16, No Iterations 2
smoothSolver:  Solving for Uy, Initial residual = 4.94574e-07, Final residual = 3.45754e-17, No Iterations 3
smoothSolver:  Solving for e, Initial residual = 1.22495e-05, Final residual = 3.17048e-14, No Iterations 1000
smoothSolver:  Solving for p, Initial residual = 2.25374e-06, Final residual = 2.78752e-13, No Iterations 1000
diagonal:  Solving for rho, Initial residual = 0, Final residual = 0, No Iterations 0
time step continuity errors : sum local = 5.36338e-15, global = 5.47721e-16, cumulative = 7.27061e-13
ExecutionTime = 727.46 s  ClockTime = 754 s

Time = 0.60275

Courant Number mean: 0.00429379 max: 0.0935561
diagonal:  Solving for rho, Initial residual = 0, Final residual = 0, No Iterations 0
PIMPLE: iteration 1
smoothSolver:  Solving for Ux, Initial residual = 0.00105713, Final residual = 3.22307e-17, No Iterations 3
smoothSolver:  Solving for Uy, Initial residual = 0.00177395, Final residual = 5.51939e-17, No Iterations 3
smoothSolver:  Solving for e, Initial residual = 0.00304959, Final residual = 3.24314e-14, No Iterations 1000
smoothSolver:  Solving for p, Initial residual = 0.00310903, Final residual = 2.78637e-13, No Iterations 1000
diagonal:  Solving for rho, Initial residual = 0, Final residual = 0, No Iterations 0
time step continuity errors : sum local = 5.27548e-15, global = 1.50804e-15, cumulative = 7.28569e-13
PIMPLE: iteration 2
smoothSolver:  Solving for Ux, Initial residual = 3.69669e-07, Final residual = 2.05088e-16, No Iterations 2
smoothSolver:  Solving for Uy, Initial residual = 5.00958e-07, Final residual = 3.57102e-17, No Iterations 3
smoothSolver:  Solving for e, Initial residual = 1.22158e-05, Final residual = 3.18921e-14, No Iterations 1000
smoothSolver:  Solving for p, Initial residual = 2.25032e-06, Final residual = 2.75364e-13, No Iterations 1000
diagonal:  Solving for rho, Initial residual = 0, Final residual = 0, No Iterations 0
time step continuity errors : sum local = 5.25339e-15, global = 4.43917e-16, cumulative = 7.29013e-13
ExecutionTime = 729.24 s  ClockTime = 757 s

Time = 0.603

Courant Number mean: 0.00430704 max: 0.0935971
diagonal:  Solving for rho, Initial residual = 0, Final residual = 0, No Iterations 0
PIMPLE: iteration 1
smoothSolver:  Solving for Ux, Initial residual = 0.00106094, Final residual = 3.44771e-17, No Iterations 3
smoothSolver:  Solving for Uy, Initial residual = 0.00178692, Final residual = 5.59911e-17, No Iterations 3
smoothSolver:  Solving for e, Initial residual = 0.00302443, Final residual = 3.16543e-14, No Iterations 1000
smoothSolver:  Solving for p, Initial residual = 0.00308276, Final residual = 2.74456e-13, No Iterations 1000
diagonal:  Solving for rho, Initial residual = 0, Final residual = 0, No Iterations 0
time step continuity errors : sum local = 5.26341e-15, global = 1.62051e-15, cumulative = 7.30633e-13
PIMPLE: iteration 2
smoothSolver:  Solving for Ux, Initial residual = 3.69329e-07, Final residual = 2.08541e-16, No Iterations 2
smoothSolver:  Solving for Uy, Initial residual = 5.01542e-07, Final residual = 3.49938e-17, No Iterations 3
smoothSolver:  Solving for e, Initial residual = 1.21748e-05, Final residual = 3.13095e-14, No Iterations 1000
smoothSolver:  Solving for p, Initial residual = 2.24067e-06, Final residual = 2.72934e-13, No Iterations 1000
diagonal:  Solving for rho, Initial residual = 0, Final residual = 0, No Iterations 0
time step continuity errors : sum local = 5.28156e-15, global = 4.02516e-16, cumulative = 7.31036e-13
ExecutionTime = 731.03 s  ClockTime = 760 s

Time = 0.60325

Courant Number mean: 0.0043204 max: 0.0936368
diagonal:  Solving for rho, Initial residual = 0, Final residual = 0, No Iterations 0
PIMPLE: iteration 1
smoothSolver:  Solving for Ux, Initial residual = 0.00106466, Final residual = 3.27624e-17, No Iterations 3
smoothSolver:  Solving for Uy, Initial residual = 0.00179979, Final residual = 5.64106e-17, No Iterations 3
smoothSolver:  Solving for e, Initial residual = 0.00299969, Final residual = 3.12911e-14, No Iterations 1000
smoothSolver:  Solving for p, Initial residual = 0.00305688, Final residual = 2.73054e-13, No Iterations 1000
diagonal:  Solving for rho, Initial residual = 0, Final residual = 0, No Iterations 0
time step continuity errors : sum local = 5.28387e-15, global = 1.67401e-15, cumulative = 7.3271e-13
PIMPLE: iteration 2
smoothSolver:  Solving for Ux, Initial residual = 3.68987e-07, Final residual = 2.11243e-16, No Iterations 2
smoothSolver:  Solving for Uy, Initial residual = 5.06882e-07, Final residual = 3.35741e-17, No Iterations 3
smoothSolver:  Solving for e, Initial residual = 1.21285e-05, Final residual = 3.06847e-14, No Iterations 1000
smoothSolver:  Solving for p, Initial residual = 2.23629e-06, Final residual = 2.67442e-13, No Iterations 1000
diagonal:  Solving for rho, Initial residual = 0, Final residual = 0, No Iterations 0
time step continuity errors : sum local = 5.30824e-15, global = 2.81984e-16, cumulative = 7.32992e-13
ExecutionTime = 732.78 s  ClockTime = 763 s

Time = 0.6035

Courant Number mean: 0.00433387 max: 0.0936751
diagonal:  Solving for rho, Initial residual = 0, Final residual = 0, No Iterations 0
PIMPLE: iteration 1
smoothSolver:  Solving for Ux, Initial residual = 0.00106826, Final residual = 3.1317e-17, No Iterations 3
smoothSolver:  Solving for Uy, Initial residual = 0.0018126, Final residual = 5.79833e-17, No Iterations 3
smoothSolver:  Solving for e, Initial residual = 0.00297536, Final residual = 3.12369e-14, No Iterations 1000
smoothSolver:  Solving for p, Initial residual = 0.0030315, Final residual = 2.67764e-13, No Iterations 1000
diagonal:  Solving for rho, Initial residual = 0, Final residual = 0, No Iterations 0
time step continuity errors : sum local = 5.36396e-15, global = 1.62804e-15, cumulative = 7.3462e-13
PIMPLE: iteration 2
smoothSolver:  Solving for Ux, Initial residual = 3.68613e-07, Final residual = 2.14945e-16, No Iterations 2
smoothSolver:  Solving for Uy, Initial residual = 5.08656e-07, Final residual = 3.39122e-17, No Iterations 3
smoothSolver:  Solving for e, Initial residual = 1.20794e-05, Final residual = 3.10495e-14, No Iterations 1000
smoothSolver:  Solving for p, Initial residual = 2.22762e-06, Final residual = 2.73114e-13, No Iterations 1000
diagonal:  Solving for rho, Initial residual = 0, Final residual = 0, No Iterations 0
time step continuity errors : sum local = 5.31278e-15, global = 3.56549e-16, cumulative = 7.34976e-13
ExecutionTime = 734.56 s  ClockTime = 767 s

Time = 0.60375

Courant Number mean: 0.00434745 max: 0.0937121
diagonal:  Solving for rho, Initial residual = 0, Final residual = 0, No Iterations 0
PIMPLE: iteration 1
smoothSolver:  Solving for Ux, Initial residual = 0.00107175, Final residual = 3.26342e-17, No Iterations 3
smoothSolver:  Solving for Uy, Initial residual = 0.00182535, Final residual = 5.85755e-17, No Iterations 3
smoothSolver:  Solving for e, Initial residual = 0.00295142, Final residual = 3.06314e-14, No Iterations 1000
smoothSolver:  Solving for p, Initial residual = 0.00300654, Final residual = 2.6805e-13, No Iterations 1000
diagonal:  Solving for rho, Initial residual = 0, Final residual = 0, No Iterations 0
time step continuity errors : sum local = 5.28251e-15, global = 1.55278e-15, cumulative = 7.36529e-13
PIMPLE: iteration 2
smoothSolver:  Solving for Ux, Initial residual = 3.68247e-07, Final residual = 2.18252e-16, No Iterations 2
smoothSolver:  Solving for Uy, Initial residual = 5.13848e-07, Final residual = 3.53358e-17, No Iterations 3
smoothSolver:  Solving for e, Initial residual = 1.20452e-05, Final residual = 3.03535e-14, No Iterations 1000
smoothSolver:  Solving for p, Initial residual = 2.22173e-06, Final residual = 2.63468e-13, No Iterations 1000
diagonal:  Solving for rho, Initial residual = 0, Final residual = 0, No Iterations 0
time step continuity errors : sum local = 5.29873e-15, global = 3.30287e-16, cumulative = 7.36859e-13
ExecutionTime = 736.4 s  ClockTime = 772 s

Time = 0.604

Courant Number mean: 0.00436114 max: 0.0937478
diagonal:  Solving for rho, Initial residual = 0, Final residual = 0, No Iterations 0
PIMPLE: iteration 1
smoothSolver:  Solving for Ux, Initial residual = 0.00107513, Final residual = 3.19736e-17, No Iterations 3
smoothSolver:  Solving for Uy, Initial residual = 0.00183802, Final residual = 5.99858e-17, No Iterations 3
smoothSolver:  Solving for e, Initial residual = 0.00292788, Final residual = 3.05978e-14, No Iterations 1000
smoothSolver:  Solving for p, Initial residual = 0.00298201, Final residual = 2.63216e-13, No Iterations 1000
diagonal:  Solving for rho, Initial residual = 0, Final residual = 0, No Iterations 0
time step continuity errors : sum local = 5.28425e-15, global = 1.65905e-15, cumulative = 7.38519e-13
PIMPLE: iteration 2
smoothSolver:  Solving for Ux, Initial residual = 3.67849e-07, Final residual = 2.24145e-16, No Iterations 2
smoothSolver:  Solving for Uy, Initial residual = 5.16843e-07, Final residual = 3.45594e-17, No Iterations 3
smoothSolver:  Solving for e, Initial residual = 1.20065e-05, Final residual = 3.05966e-14, No Iterations 1000
smoothSolver:  Solving for p, Initial residual = 2.21573e-06, Final residual = 2.63982e-13, No Iterations 1000
diagonal:  Solving for rho, Initial residual = 0, Final residual = 0, No Iterations 0
time step continuity errors : sum local = 5.31374e-15, global = 1.36613e-16, cumulative = 7.38655e-13
ExecutionTime = 738.18 s  ClockTime = 774 s

Time = 0.60425

Courant Number mean: 0.00437494 max: 0.0937823
diagonal:  Solving for rho, Initial residual = 0, Final residual = 0, No Iterations 0
PIMPLE: iteration 1
smoothSolver:  Solving for Ux, Initial residual = 0.00107841, Final residual = 3.25178e-17, No Iterations 3
smoothSolver:  Solving for Uy, Initial residual = 0.00185062, Final residual = 6.01491e-17, No Iterations 3
smoothSolver:  Solving for e, Initial residual = 0.0029047, Final residual = 2.99237e-14, No Iterations 1000
smoothSolver:  Solving for p, Initial residual = 0.00295789, Final residual = 2.61774e-13, No Iterations 1000
diagonal:  Solving for rho, Initial residual = 0, Final residual = 0, No Iterations 0
time step continuity errors : sum local = 5.24411e-15, global = 1.56263e-15, cumulative = 7.40218e-13
PIMPLE: iteration 2
smoothSolver:  Solving for Ux, Initial residual = 3.67385e-07, Final residual = 2.27072e-16, No Iterations 2
smoothSolver:  Solving for Uy, Initial residual = 5.21317e-07, Final residual = 3.48153e-17, No Iterations 3
smoothSolver:  Solving for e, Initial residual = 1.19768e-05, Final residual = 2.99993e-14, No Iterations 1000
smoothSolver:  Solving for p, Initial residual = 2.21046e-06, Final residual = 2.62461e-13, No Iterations 1000
diagonal:  Solving for rho, Initial residual = 0, Final residual = 0, No Iterations 0
time step continuity errors : sum local = 5.35837e-15, global = 1.94497e-16, cumulative = 7.40412e-13
ExecutionTime = 739.92 s  ClockTime = 776 s

Time = 0.6045

Courant Number mean: 0.00438885 max: 0.0938156
diagonal:  Solving for rho, Initial residual = 0, Final residual = 0, No Iterations 0
PIMPLE: iteration 1
smoothSolver:  Solving for Ux, Initial residual = 0.00108157, Final residual = 3.12268e-17, No Iterations 3
smoothSolver:  Solving for Uy, Initial residual = 0.00186313, Final residual = 6.05878e-17, No Iterations 3
smoothSolver:  Solving for e, Initial residual = 0.0028819, Final residual = 2.98363e-14, No Iterations 1000
smoothSolver:  Solving for p, Initial residual = 0.00293414, Final residual = 2.62025e-13, No Iterations 1000
diagonal:  Solving for rho, Initial residual = 0, Final residual = 0, No Iterations 0
time step continuity errors : sum local = 5.29736e-15, global = 1.61907e-15, cumulative = 7.42031e-13
PIMPLE: iteration 2
smoothSolver:  Solving for Ux, Initial residual = 3.66967e-07, Final residual = 2.30242e-16, No Iterations 2
smoothSolver:  Solving for Uy, Initial residual = 5.24812e-07, Final residual = 3.52088e-17, No Iterations 3
smoothSolver:  Solving for e, Initial residual = 1.19421e-05, Final residual = 2.98568e-14, No Iterations 1000
smoothSolver:  Solving for p, Initial residual = 2.20409e-06, Final residual = 2.58362e-13, No Iterations 1000
diagonal:  Solving for rho, Initial residual = 0, Final residual = 0, No Iterations 0
time step continuity errors : sum local = 5.2776e-15, global = 7.95897e-17, cumulative = 7.42111e-13
ExecutionTime = 741.73 s  ClockTime = 779 s

Time = 0.60475

Courant Number mean: 0.00440288 max: 0.0938476
diagonal:  Solving for rho, Initial residual = 0, Final residual = 0, No Iterations 0
PIMPLE: iteration 1
smoothSolver:  Solving for Ux, Initial residual = 0.00108464, Final residual = 3.23468e-17, No Iterations 3
smoothSolver:  Solving for Uy, Initial residual = 0.00187556, Final residual = 6.14938e-17, No Iterations 3
smoothSolver:  Solving for e, Initial residual = 0.00285945, Final residual = 2.94561e-14, No Iterations 1000
smoothSolver:  Solving for p, Initial residual = 0.00291078, Final residual = 2.60154e-13, No Iterations 1000
diagonal:  Solving for rho, Initial residual = 0, Final residual = 0, No Iterations 0
time step continuity errors : sum local = 5.33664e-15, global = 1.57394e-15, cumulative = 7.43685e-13
PIMPLE: iteration 2
smoothSolver:  Solving for Ux, Initial residual = 3.66433e-07, Final residual = 2.33889e-16, No Iterations 2
smoothSolver:  Solving for Uy, Initial residual = 5.29016e-07, Final residual = 3.32346e-17, No Iterations 3
smoothSolver:  Solving for e, Initial residual = 1.19086e-05, Final residual = 2.92649e-14, No Iterations 1000
smoothSolver:  Solving for p, Initial residual = 2.19811e-06, Final residual = 2.56084e-13, No Iterations 1000
diagonal:  Solving for rho, Initial residual = 0, Final residual = 0, No Iterations 0
time step continuity errors : sum local = 5.28361e-15, global = 1.20118e-16, cumulative = 7.43805e-13
ExecutionTime = 743.49 s  ClockTime = 782 s

Time = 0.605

Courant Number mean: 0.00441704 max: 0.0938785
diagonal:  Solving for rho, Initial residual = 0, Final residual = 0, No Iterations 0
PIMPLE: iteration 1
smoothSolver:  Solving for Ux, Initial residual = 0.00108759, Final residual = 3.16241e-17, No Iterations 3
smoothSolver:  Solving for Uy, Initial residual = 0.0018879, Final residual = 6.19213e-17, No Iterations 3
smoothSolver:  Solving for e, Initial residual = 0.00283735, Final residual = 2.97397e-14, No Iterations 1000
smoothSolver:  Solving for p, Initial residual = 0.00288781, Final residual = 2.57997e-13, No Iterations 1000
diagonal:  Solving for rho, Initial residual = 0, Final residual = 0, No Iterations 0
time step continuity errors : sum local = 5.31747e-15, global = 1.56498e-15, cumulative = 7.4537e-13
PIMPLE: iteration 2
smoothSolver:  Solving for Ux, Initial residual = 3.65955e-07, Final residual = 2.38162e-16, No Iterations 2
smoothSolver:  Solving for Uy, Initial residual = 5.32902e-07, Final residual = 3.54581e-17, No Iterations 3
smoothSolver:  Solving for e, Initial residual = 1.18765e-05, Final residual = 2.91505e-14, No Iterations 1000
