/*---------------------------------------------------------------------------*\
| =========                 |                                                 |
| \\      /  F ield         | OpenFOAM: The Open Source CFD Toolbox           |
|  \\    /   O peration     | Version:  3.0.x                                 |
|   \\  /    A nd           | Web:      www.OpenFOAM.org                      |
|    \\/     M anipulation  |                                                 |
\*---------------------------------------------------------------------------*/
Build  : 3.0.x-4b5e129783d9
Exec   : sonicFoam
Date   : Jan 31 2017
Time   : 07:31:39
Host   : "alex-VirtualBox"
PID    : 4549
Case   : /home/alex/OpenFOAM/alex-3.0.x/run/SH6_43_msh2
nProcs : 1
sigFpe : Enabling floating point exception trapping (FOAM_SIGFPE).
fileModificationChecking : Monitoring run-time modified files using timeStampMaster
allowSystemOperations : Allowing user-supplied system call operations

// * * * * * * * * * * * * * * * * * * * * * * * * * * * * * * * * * * * * * //
Create time

Create mesh for time = 0


PIMPLE: no residual control data found. Calculations will employ 2 corrector loops

Reading thermophysical properties

Selecting thermodynamics package 
{
    type            hePsiThermo;
    mixture         pureMixture;
    transport       const;
    thermo          hConst;
    equationOfState perfectGas;
    specie          specie;
    energy          sensibleInternalEnergy;
}

Reading field U

Reading/calculating face flux field phi

Creating turbulence model

Selecting turbulence model type laminar
Creating field kinetic energy K

No MRF models present

No finite volume options present


Starting time loop

Time = 0.00025

Courant Number mean: 0.0990822 max: 1.0633
diagonal:  Solving for rho, Initial residual = 0, Final residual = 0, No Iterations 0
PIMPLE: iteration 1
smoothSolver:  Solving for Ux, Initial residual = 0.000135165, Final residual = 3.2316e-16, No Iterations 7
smoothSolver:  Solving for Uy, Initial residual = 0.000202458, Final residual = 3.8683e-16, No Iterations 7
smoothSolver:  Solving for e, Initial residual = 1, Final residual = 8.91773e-13, No Iterations 1000
smoothSolver:  Solving for p, Initial residual = 1, Final residual = 7.63947e-12, No Iterations 1000
diagonal:  Solving for rho, Initial residual = 0, Final residual = 0, No Iterations 0
time step continuity errors : sum local = 3.30074e-15, global = -2.05659e-16, cumulative = -2.05659e-16
PIMPLE: iteration 2
smoothSolver:  Solving for Ux, Initial residual = 0.00137538, Final residual = 9.48758e-17, No Iterations 6
smoothSolver:  Solving for Uy, Initial residual = 0.00211426, Final residual = 5.31165e-17, No Iterations 6
smoothSolver:  Solving for e, Initial residual = 0.0900292, Final residual = 5.5181e-14, No Iterations 1000
smoothSolver:  Solving for p, Initial residual = 0.348945, Final residual = 2.84924e-12, No Iterations 1000
diagonal:  Solving for rho, Initial residual = 0, Final residual = 0, No Iterations 0
time step continuity errors : sum local = 3.59992e-15, global = 3.46033e-16, cumulative = 1.40374e-16
ExecutionTime = 3.78 s  ClockTime = 4 s

Time = 0.0005

Courant Number mean: 0.0985113 max: 0.874725
diagonal:  Solving for rho, Initial residual = 0, Final residual = 0, No Iterations 0
PIMPLE: iteration 1
smoothSolver:  Solving for Ux, Initial residual = 0.00233003, Final residual = 3.6027e-16, No Iterations 6
smoothSolver:  Solving for Uy, Initial residual = 0.00355257, Final residual = 4.38946e-16, No Iterations 6
smoothSolver:  Solving for e, Initial residual = 0.0749682, Final residual = 2.83686e-13, No Iterations 1000
smoothSolver:  Solving for p, Initial residual = 0.415221, Final residual = 7.15653e-12, No Iterations 1000
diagonal:  Solving for rho, Initial residual = 0, Final residual = 0, No Iterations 0
time step continuity errors : sum local = 5.1481e-15, global = 2.6324e-15, cumulative = 2.77277e-15
PIMPLE: iteration 2
smoothSolver:  Solving for Ux, Initial residual = 0.000281622, Final residual = 2.03955e-16, No Iterations 5
smoothSolver:  Solving for Uy, Initial residual = 0.000433824, Final residual = 2.17942e-16, No Iterations 5
smoothSolver:  Solving for e, Initial residual = 0.122566, Final residual = 3.20229e-13, No Iterations 1000
smoothSolver:  Solving for p, Initial residual = 0.137061, Final residual = 7.42451e-12, No Iterations 1000
diagonal:  Solving for rho, Initial residual = 0, Final residual = 0, No Iterations 0
time step continuity errors : sum local = 5.05203e-15, global = -2.1736e-15, cumulative = 5.99175e-16
ExecutionTime = 7.35 s  ClockTime = 8 s

Time = 0.00075

Courant Number mean: 0.098456 max: 0.911189
diagonal:  Solving for rho, Initial residual = 0, Final residual = 0, No Iterations 0
PIMPLE: iteration 1
smoothSolver:  Solving for Ux, Initial residual = 0.00151601, Final residual = 8.49464e-17, No Iterations 6
smoothSolver:  Solving for Uy, Initial residual = 0.00230686, Final residual = 4.91806e-17, No Iterations 6
smoothSolver:  Solving for e, Initial residual = 0.0386692, Final residual = 3.09156e-13, No Iterations 1000
smoothSolver:  Solving for p, Initial residual = 0.403068, Final residual = 9.98392e-12, No Iterations 1000
diagonal:  Solving for rho, Initial residual = 0, Final residual = 0, No Iterations 0
time step continuity errors : sum local = 5.1974e-15, global = 2.69683e-15, cumulative = 3.296e-15
PIMPLE: iteration 2
smoothSolver:  Solving for Ux, Initial residual = 0.000336645, Final residual = 2.08717e-16, No Iterations 5
smoothSolver:  Solving for Uy, Initial residual = 0.000517551, Final residual = 2.36274e-16, No Iterations 5
smoothSolver:  Solving for e, Initial residual = 0.0445345, Final residual = 3.37658e-13, No Iterations 1000
smoothSolver:  Solving for p, Initial residual = 0.0891336, Final residual = 1.18556e-11, No Iterations 1000
diagonal:  Solving for rho, Initial residual = 0, Final residual = 0, No Iterations 0
time step continuity errors : sum local = 5.02631e-15, global = 2.68385e-15, cumulative = 5.97985e-15
ExecutionTime = 10.89 s  ClockTime = 12 s

Time = 0.001

Courant Number mean: 0.0984653 max: 0.907975
diagonal:  Solving for rho, Initial residual = 0, Final residual = 0, No Iterations 0
PIMPLE: iteration 1
smoothSolver:  Solving for Ux, Initial residual = 0.000569378, Final residual = 4.90519e-16, No Iterations 5
smoothSolver:  Solving for Uy, Initial residual = 0.000855781, Final residual = 6.58332e-16, No Iterations 5
smoothSolver:  Solving for e, Initial residual = 0.0562915, Final residual = 3.57046e-13, No Iterations 1000
smoothSolver:  Solving for p, Initial residual = 0.337646, Final residual = 1.23817e-11, No Iterations 1000
diagonal:  Solving for rho, Initial residual = 0, Final residual = 0, No Iterations 0
time step continuity errors : sum local = 5.11684e-15, global = 2.66762e-15, cumulative = 8.64747e-15
PIMPLE: iteration 2
smoothSolver:  Solving for Ux, Initial residual = 0.000176657, Final residual = 2.31335e-16, No Iterations 5
smoothSolver:  Solving for Uy, Initial residual = 0.000269335, Final residual = 2.66549e-16, No Iterations 5
smoothSolver:  Solving for e, Initial residual = 0.028475, Final residual = 3.702e-13, No Iterations 1000
smoothSolver:  Solving for p, Initial residual = 0.0709402, Final residual = 1.31444e-11, No Iterations 1000
diagonal:  Solving for rho, Initial residual = 0, Final residual = 0, No Iterations 0
time step continuity errors : sum local = 5.17172e-15, global = 2.78797e-15, cumulative = 1.14354e-14
ExecutionTime = 14.44 s  ClockTime = 16 s

Time = 0.00125

Courant Number mean: 0.0984781 max: 0.90289
diagonal:  Solving for rho, Initial residual = 0, Final residual = 0, No Iterations 0
PIMPLE: iteration 1
smoothSolver:  Solving for Ux, Initial residual = 0.000388095, Final residual = 1.96527e-16, No Iterations 5
smoothSolver:  Solving for Uy, Initial residual = 0.000590637, Final residual = 2.22557e-16, No Iterations 5
smoothSolver:  Solving for e, Initial residual = 0.0426617, Final residual = 3.77716e-13, No Iterations 1000
smoothSolver:  Solving for p, Initial residual = 0.193012, Final residual = 1.36375e-11, No Iterations 1000
diagonal:  Solving for rho, Initial residual = 0, Final residual = 0, No Iterations 0
time step continuity errors : sum local = 5.20057e-15, global = 2.89488e-15, cumulative = 1.43303e-14
PIMPLE: iteration 2
smoothSolver:  Solving for Ux, Initial residual = 5.20798e-05, Final residual = 1.31897e-16, No Iterations 5
smoothSolver:  Solving for Uy, Initial residual = 7.90975e-05, Final residual = 1.18518e-16, No Iterations 5
smoothSolver:  Solving for e, Initial residual = 0.030383, Final residual = 3.80273e-13, No Iterations 1000
smoothSolver:  Solving for p, Initial residual = 0.037716, Final residual = 1.37313e-11, No Iterations 1000
diagonal:  Solving for rho, Initial residual = 0, Final residual = 0, No Iterations 0
time step continuity errors : sum local = 5.05903e-15, global = 2.47882e-15, cumulative = 1.68091e-14
ExecutionTime = 17.99 s  ClockTime = 19 s

Time = 0.0015

Courant Number mean: 0.098507 max: 0.910778
diagonal:  Solving for rho, Initial residual = 0, Final residual = 0, No Iterations 0
PIMPLE: iteration 1
smoothSolver:  Solving for Ux, Initial residual = 0.000420673, Final residual = 2.40966e-16, No Iterations 5
smoothSolver:  Solving for Uy, Initial residual = 0.000636466, Final residual = 2.89381e-16, No Iterations 5
smoothSolver:  Solving for e, Initial residual = 0.0280417, Final residual = 3.88603e-13, No Iterations 1000
smoothSolver:  Solving for p, Initial residual = 0.140189, Final residual = 1.42269e-11, No Iterations 1000
diagonal:  Solving for rho, Initial residual = 0, Final residual = 0, No Iterations 0
time step continuity errors : sum local = 5.1372e-15, global = 2.71107e-15, cumulative = 1.95202e-14
PIMPLE: iteration 2
smoothSolver:  Solving for Ux, Initial residual = 3.49233e-05, Final residual = 1.17783e-16, No Iterations 5
smoothSolver:  Solving for Uy, Initial residual = 5.51561e-05, Final residual = 9.06093e-17, No Iterations 5
smoothSolver:  Solving for e, Initial residual = 0.0202698, Final residual = 4.0966e-13, No Iterations 1000
smoothSolver:  Solving for p, Initial residual = 0.0198721, Final residual = 1.46574e-11, No Iterations 1000
diagonal:  Solving for rho, Initial residual = 0, Final residual = 0, No Iterations 0
time step continuity errors : sum local = 5.15489e-15, global = -2.43475e-15, cumulative = 1.70855e-14
ExecutionTime = 21.57 s  ClockTime = 23 s

Time = 0.00175

Courant Number mean: 0.0985435 max: 0.925798
diagonal:  Solving for rho, Initial residual = 0, Final residual = 0, No Iterations 0
PIMPLE: iteration 1
smoothSolver:  Solving for Ux, Initial residual = 0.000358202, Final residual = 2.43189e-16, No Iterations 5
smoothSolver:  Solving for Uy, Initial residual = 0.00053938, Final residual = 2.91192e-16, No Iterations 5
smoothSolver:  Solving for e, Initial residual = 0.0234788, Final residual = 4.11608e-13, No Iterations 1000
smoothSolver:  Solving for p, Initial residual = 0.126532, Final residual = 1.50371e-11, No Iterations 1000
diagonal:  Solving for rho, Initial residual = 0, Final residual = 0, No Iterations 0
time step continuity errors : sum local = 5.12427e-15, global = 2.44344e-15, cumulative = 1.95289e-14
PIMPLE: iteration 2
smoothSolver:  Solving for Ux, Initial residual = 3.27657e-05, Final residual = 1.11916e-16, No Iterations 5
smoothSolver:  Solving for Uy, Initial residual = 5.08985e-05, Final residual = 8.72547e-17, No Iterations 5
smoothSolver:  Solving for e, Initial residual = 0.0132418, Final residual = 4.39064e-13, No Iterations 1000
smoothSolver:  Solving for p, Initial residual = 0.0142502, Final residual = 1.48257e-11, No Iterations 1000
diagonal:  Solving for rho, Initial residual = 0, Final residual = 0, No Iterations 0
time step continuity errors : sum local = 5.13146e-15, global = -2.33199e-15, cumulative = 1.71969e-14
ExecutionTime = 25.09 s  ClockTime = 26 s

Time = 0.002

Courant Number mean: 0.0985751 max: 0.938777
diagonal:  Solving for rho, Initial residual = 0, Final residual = 0, No Iterations 0
PIMPLE: iteration 1
smoothSolver:  Solving for Ux, Initial residual = 0.00029725, Final residual = 2.4565e-16, No Iterations 5
smoothSolver:  Solving for Uy, Initial residual = 0.000447782, Final residual = 2.93096e-16, No Iterations 5
smoothSolver:  Solving for e, Initial residual = 0.0243699, Final residual = 4.34855e-13, No Iterations 1000
smoothSolver:  Solving for p, Initial residual = 0.103587, Final residual = 1.49993e-11, No Iterations 1000
diagonal:  Solving for rho, Initial residual = 0, Final residual = 0, No Iterations 0
time step continuity errors : sum local = 5.17857e-15, global = 2.59042e-15, cumulative = 1.97873e-14
PIMPLE: iteration 2
smoothSolver:  Solving for Ux, Initial residual = 2.23641e-05, Final residual = 9.90807e-17, No Iterations 5
smoothSolver:  Solving for Uy, Initial residual = 3.4588e-05, Final residual = 6.3552e-17, No Iterations 5
smoothSolver:  Solving for e, Initial residual = 0.0096499, Final residual = 4.53117e-13, No Iterations 1000
smoothSolver:  Solving for p, Initial residual = 0.0109315, Final residual = 1.40406e-11, No Iterations 1000
diagonal:  Solving for rho, Initial residual = 0, Final residual = 0, No Iterations 0
time step continuity errors : sum local = 4.94596e-15, global = -1.70307e-15, cumulative = 1.80843e-14
ExecutionTime = 28.69 s  ClockTime = 30 s

Time = 0.00225

Courant Number mean: 0.0985989 max: 0.946165
diagonal:  Solving for rho, Initial residual = 0, Final residual = 0, No Iterations 0
PIMPLE: iteration 1
smoothSolver:  Solving for Ux, Initial residual = 0.000256153, Final residual = 2.30955e-16, No Iterations 5
smoothSolver:  Solving for Uy, Initial residual = 0.000387575, Final residual = 2.67934e-16, No Iterations 5
smoothSolver:  Solving for e, Initial residual = 0.0238609, Final residual = 4.39336e-13, No Iterations 1000
smoothSolver:  Solving for p, Initial residual = 0.0869842, Final residual = 1.45323e-11, No Iterations 1000
diagonal:  Solving for rho, Initial residual = 0, Final residual = 0, No Iterations 0
time step continuity errors : sum local = 5.10362e-15, global = 2.29263e-15, cumulative = 2.03769e-14
PIMPLE: iteration 2
smoothSolver:  Solving for Ux, Initial residual = 1.49649e-05, Final residual = 8.91073e-17, No Iterations 5
smoothSolver:  Solving for Uy, Initial residual = 2.34662e-05, Final residual = 5.17137e-17, No Iterations 5
smoothSolver:  Solving for e, Initial residual = 0.0082615, Final residual = 4.58891e-13, No Iterations 1000
smoothSolver:  Solving for p, Initial residual = 0.00818824, Final residual = 1.40725e-11, No Iterations 1000
diagonal:  Solving for rho, Initial residual = 0, Final residual = 0, No Iterations 0
time step continuity errors : sum local = 5.11573e-15, global = 2.55524e-15, cumulative = 2.29321e-14
ExecutionTime = 32.23 s  ClockTime = 33 s

Time = 0.0025

Courant Number mean: 0.0986122 max: 0.948463
diagonal:  Solving for rho, Initial residual = 0, Final residual = 0, No Iterations 0
PIMPLE: iteration 1
smoothSolver:  Solving for Ux, Initial residual = 0.000233224, Final residual = 1.90115e-16, No Iterations 5
smoothSolver:  Solving for Uy, Initial residual = 0.000353005, Final residual = 2.0962e-16, No Iterations 5
smoothSolver:  Solving for e, Initial residual = 0.0231905, Final residual = 4.69304e-13, No Iterations 1000
smoothSolver:  Solving for p, Initial residual = 0.0765587, Final residual = 1.40457e-11, No Iterations 1000
diagonal:  Solving for rho, Initial residual = 0, Final residual = 0, No Iterations 0
time step continuity errors : sum local = 5.04729e-15, global = 2.26865e-15, cumulative = 2.52008e-14
PIMPLE: iteration 2
smoothSolver:  Solving for Ux, Initial residual = 1.13211e-05, Final residual = 8.79137e-17, No Iterations 5
smoothSolver:  Solving for Uy, Initial residual = 1.79572e-05, Final residual = 4.7631e-17, No Iterations 5
smoothSolver:  Solving for e, Initial residual = 0.00732876, Final residual = 4.88852e-13, No Iterations 1000
smoothSolver:  Solving for p, Initial residual = 0.00584292, Final residual = 1.349e-11, No Iterations 1000
diagonal:  Solving for rho, Initial residual = 0, Final residual = 0, No Iterations 0
time step continuity errors : sum local = 4.96564e-15, global = 2.43809e-15, cumulative = 2.76389e-14
ExecutionTime = 35.79 s  ClockTime = 37 s

Time = 0.00275

Courant Number mean: 0.0986165 max: 0.947789
diagonal:  Solving for rho, Initial residual = 0, Final residual = 0, No Iterations 0
PIMPLE: iteration 1
smoothSolver:  Solving for Ux, Initial residual = 0.000223644, Final residual = 1.62193e-16, No Iterations 5
smoothSolver:  Solving for Uy, Initial residual = 0.000338428, Final residual = 1.5821e-16, No Iterations 5
smoothSolver:  Solving for e, Initial residual = 0.0235249, Final residual = 4.96636e-13, No Iterations 1000
smoothSolver:  Solving for p, Initial residual = 0.0694649, Final residual = 1.3822e-11, No Iterations 1000
diagonal:  Solving for rho, Initial residual = 0, Final residual = 0, No Iterations 0
time step continuity errors : sum local = 5.10926e-15, global = 2.32221e-15, cumulative = 2.99611e-14
PIMPLE: iteration 2
smoothSolver:  Solving for Ux, Initial residual = 8.2457e-06, Final residual = 9.03459e-16, No Iterations 4
smoothSolver:  Solving for Uy, Initial residual = 1.31705e-05, Final residual = 4.61744e-17, No Iterations 5
smoothSolver:  Solving for e, Initial residual = 0.00670666, Final residual = 5.1906e-13, No Iterations 1000
smoothSolver:  Solving for p, Initial residual = 0.00459366, Final residual = 1.29193e-11, No Iterations 1000
diagonal:  Solving for rho, Initial residual = 0, Final residual = 0, No Iterations 0
time step continuity errors : sum local = 4.72069e-15, global = 1.78841e-15, cumulative = 3.17495e-14
ExecutionTime = 39.32 s  ClockTime = 40 s

Time = 0.003

Courant Number mean: 0.0986151 max: 0.945694
diagonal:  Solving for rho, Initial residual = 0, Final residual = 0, No Iterations 0
PIMPLE: iteration 1
smoothSolver:  Solving for Ux, Initial residual = 0.000221106, Final residual = 1.36399e-16, No Iterations 5
smoothSolver:  Solving for Uy, Initial residual = 0.000335475, Final residual = 1.22546e-16, No Iterations 5
smoothSolver:  Solving for e, Initial residual = 0.0241537, Final residual = 5.12954e-13, No Iterations 1000
smoothSolver:  Solving for p, Initial residual = 0.0656635, Final residual = 1.334e-11, No Iterations 1000
diagonal:  Solving for rho, Initial residual = 0, Final residual = 0, No Iterations 0
time step continuity errors : sum local = 5.25424e-15, global = 2.44064e-15, cumulative = 3.41901e-14
PIMPLE: iteration 2
smoothSolver:  Solving for Ux, Initial residual = 6.11957e-06, Final residual = 5.98189e-16, No Iterations 4
smoothSolver:  Solving for Uy, Initial residual = 9.8762e-06, Final residual = 8.71471e-16, No Iterations 4
smoothSolver:  Solving for e, Initial residual = 0.00623, Final residual = 5.37456e-13, No Iterations 1000
smoothSolver:  Solving for p, Initial residual = 0.00416497, Final residual = 1.27038e-11, No Iterations 1000
diagonal:  Solving for rho, Initial residual = 0, Final residual = 0, No Iterations 0
time step continuity errors : sum local = 4.6749e-15, global = 1.41524e-15, cumulative = 3.56054e-14
ExecutionTime = 42.92 s  ClockTime = 44 s

Time = 0.00325

Courant Number mean: 0.0986113 max: 0.943254
diagonal:  Solving for rho, Initial residual = 0, Final residual = 0, No Iterations 0
PIMPLE: iteration 1
smoothSolver:  Solving for Ux, Initial residual = 0.000219972, Final residual = 1.19881e-16, No Iterations 5
smoothSolver:  Solving for Uy, Initial residual = 0.000333868, Final residual = 9.96586e-17, No Iterations 5
smoothSolver:  Solving for e, Initial residual = 0.0249294, Final residual = 5.29992e-13, No Iterations 1000
smoothSolver:  Solving for p, Initial residual = 0.0613384, Final residual = 1.33126e-11, No Iterations 1000
diagonal:  Solving for rho, Initial residual = 0, Final residual = 0, No Iterations 0
time step continuity errors : sum local = 5.05483e-15, global = 2.062e-15, cumulative = 3.76674e-14
PIMPLE: iteration 2
smoothSolver:  Solving for Ux, Initial residual = 4.90677e-06, Final residual = 3.44461e-16, No Iterations 4
smoothSolver:  Solving for Uy, Initial residual = 8.02655e-06, Final residual = 4.5578e-16, No Iterations 4
smoothSolver:  Solving for e, Initial residual = 0.00571612, Final residual = 5.44416e-13, No Iterations 1000
smoothSolver:  Solving for p, Initial residual = 0.00374269, Final residual = 1.2364e-11, No Iterations 1000
diagonal:  Solving for rho, Initial residual = 0, Final residual = 0, No Iterations 0
time step continuity errors : sum local = 4.62738e-15, global = 1.2422e-15, cumulative = 3.89096e-14
ExecutionTime = 46.51 s  ClockTime = 48 s

Time = 0.0035

Courant Number mean: 0.0986073 max: 0.940334
diagonal:  Solving for rho, Initial residual = 0, Final residual = 0, No Iterations 0
PIMPLE: iteration 1
smoothSolver:  Solving for Ux, Initial residual = 0.000218525, Final residual = 1.11406e-16, No Iterations 5
smoothSolver:  Solving for Uy, Initial residual = 0.000332298, Final residual = 8.55078e-17, No Iterations 5
smoothSolver:  Solving for e, Initial residual = 0.025764, Final residual = 5.41225e-13, No Iterations 1000
smoothSolver:  Solving for p, Initial residual = 0.0595491, Final residual = 1.3342e-11, No Iterations 1000
diagonal:  Solving for rho, Initial residual = 0, Final residual = 0, No Iterations 0
time step continuity errors : sum local = 5.0927e-15, global = 2.23382e-15, cumulative = 4.11434e-14
PIMPLE: iteration 2
smoothSolver:  Solving for Ux, Initial residual = 4.21795e-06, Final residual = 2.0597e-16, No Iterations 4
smoothSolver:  Solving for Uy, Initial residual = 6.98157e-06, Final residual = 2.23699e-16, No Iterations 4
smoothSolver:  Solving for e, Initial residual = 0.00545405, Final residual = 5.61492e-13, No Iterations 1000
smoothSolver:  Solving for p, Initial residual = 0.00343176, Final residual = 1.26288e-11, No Iterations 1000
diagonal:  Solving for rho, Initial residual = 0, Final residual = 0, No Iterations 0
time step continuity errors : sum local = 4.60716e-15, global = 1.19767e-15, cumulative = 4.23411e-14
ExecutionTime = 50.22 s  ClockTime = 51 s

Time = 0.00375

Courant Number mean: 0.0986025 max: 0.937318
diagonal:  Solving for rho, Initial residual = 0, Final residual = 0, No Iterations 0
PIMPLE: iteration 1
smoothSolver:  Solving for Ux, Initial residual = 0.000216658, Final residual = 1.06359e-16, No Iterations 5
smoothSolver:  Solving for Uy, Initial residual = 0.000330185, Final residual = 7.46126e-17, No Iterations 5
smoothSolver:  Solving for e, Initial residual = 0.0265305, Final residual = 5.53453e-13, No Iterations 1000
smoothSolver:  Solving for p, Initial residual = 0.0572249, Final residual = 1.32344e-11, No Iterations 1000
diagonal:  Solving for rho, Initial residual = 0, Final residual = 0, No Iterations 0
time step continuity errors : sum local = 4.98773e-15, global = 2.06518e-15, cumulative = 4.44062e-14
PIMPLE: iteration 2
smoothSolver:  Solving for Ux, Initial residual = 3.81341e-06, Final residual = 1.54773e-16, No Iterations 4
smoothSolver:  Solving for Uy, Initial residual = 6.32787e-06, Final residual = 1.53207e-16, No Iterations 4
smoothSolver:  Solving for e, Initial residual = 0.00525264, Final residual = 5.73299e-13, No Iterations 1000
smoothSolver:  Solving for p, Initial residual = 0.00319148, Final residual = 1.25526e-11, No Iterations 1000
diagonal:  Solving for rho, Initial residual = 0, Final residual = 0, No Iterations 0
time step continuity errors : sum local = 4.61113e-15, global = 1.15161e-15, cumulative = 4.55579e-14
ExecutionTime = 53.75 s  ClockTime = 55 s

Time = 0.004

Courant Number mean: 0.0985981 max: 0.934282
diagonal:  Solving for rho, Initial residual = 0, Final residual = 0, No Iterations 0
PIMPLE: iteration 1
smoothSolver:  Solving for Ux, Initial residual = 0.000214789, Final residual = 1.0197e-16, No Iterations 5
smoothSolver:  Solving for Uy, Initial residual = 0.000327579, Final residual = 6.81332e-17, No Iterations 5
smoothSolver:  Solving for e, Initial residual = 0.0270616, Final residual = 5.84938e-13, No Iterations 1000
smoothSolver:  Solving for p, Initial residual = 0.0552356, Final residual = 1.34802e-11, No Iterations 1000
diagonal:  Solving for rho, Initial residual = 0, Final residual = 0, No Iterations 0
time step continuity errors : sum local = 5.02518e-15, global = 2.10139e-15, cumulative = 4.76592e-14
PIMPLE: iteration 2
smoothSolver:  Solving for Ux, Initial residual = 3.56565e-06, Final residual = 1.46576e-16, No Iterations 4
smoothSolver:  Solving for Uy, Initial residual = 5.91788e-06, Final residual = 1.42529e-16, No Iterations 4
smoothSolver:  Solving for e, Initial residual = 0.0051328, Final residual = 5.88209e-13, No Iterations 1000
smoothSolver:  Solving for p, Initial residual = 0.00301803, Final residual = 1.26029e-11, No Iterations 1000
diagonal:  Solving for rho, Initial residual = 0, Final residual = 0, No Iterations 0
time step continuity errors : sum local = 4.63802e-15, global = 1.20961e-15, cumulative = 4.88689e-14
ExecutionTime = 57.42 s  ClockTime = 59 s

Time = 0.00425

Courant Number mean: 0.098594 max: 0.930808
diagonal:  Solving for rho, Initial residual = 0, Final residual = 0, No Iterations 0
PIMPLE: iteration 1
smoothSolver:  Solving for Ux, Initial residual = 0.000212428, Final residual = 9.69512e-17, No Iterations 5
smoothSolver:  Solving for Uy, Initial residual = 0.000323901, Final residual = 6.35939e-17, No Iterations 5
smoothSolver:  Solving for e, Initial residual = 0.0273419, Final residual = 5.94597e-13, No Iterations 1000
smoothSolver:  Solving for p, Initial residual = 0.0541339, Final residual = 1.33031e-11, No Iterations 1000
diagonal:  Solving for rho, Initial residual = 0, Final residual = 0, No Iterations 0
time step continuity errors : sum local = 5.04187e-15, global = 2.40141e-15, cumulative = 5.12703e-14
PIMPLE: iteration 2
smoothSolver:  Solving for Ux, Initial residual = 3.43123e-06, Final residual = 1.36661e-16, No Iterations 4
smoothSolver:  Solving for Uy, Initial residual = 5.71379e-06, Final residual = 1.25344e-16, No Iterations 4
smoothSolver:  Solving for e, Initial residual = 0.00503747, Final residual = 6.00426e-13, No Iterations 1000
smoothSolver:  Solving for p, Initial residual = 0.00287898, Final residual = 1.2643e-11, No Iterations 1000
diagonal:  Solving for rho, Initial residual = 0, Final residual = 0, No Iterations 0
time step continuity errors : sum local = 4.68046e-15, global = 1.34782e-15, cumulative = 5.26181e-14
ExecutionTime = 61.09 s  ClockTime = 62 s

Time = 0.0045

Courant Number mean: 0.0985912 max: 0.927579
diagonal:  Solving for rho, Initial residual = 0, Final residual = 0, No Iterations 0
PIMPLE: iteration 1
smoothSolver:  Solving for Ux, Initial residual = 0.000209237, Final residual = 9.5265e-17, No Iterations 5
smoothSolver:  Solving for Uy, Initial residual = 0.000318995, Final residual = 5.95768e-17, No Iterations 5
smoothSolver:  Solving for e, Initial residual = 0.0274947, Final residual = 6.07941e-13, No Iterations 1000
smoothSolver:  Solving for p, Initial residual = 0.0528297, Final residual = 1.33649e-11, No Iterations 1000
diagonal:  Solving for rho, Initial residual = 0, Final residual = 0, No Iterations 0
time step continuity errors : sum local = 5.07398e-15, global = 2.19054e-15, cumulative = 5.48086e-14
PIMPLE: iteration 2
smoothSolver:  Solving for Ux, Initial residual = 3.34452e-06, Final residual = 1.31483e-16, No Iterations 4
smoothSolver:  Solving for Uy, Initial residual = 5.5364e-06, Final residual = 1.15762e-16, No Iterations 4
smoothSolver:  Solving for e, Initial residual = 0.00495183, Final residual = 6.08602e-13, No Iterations 1000
smoothSolver:  Solving for p, Initial residual = 0.00277914, Final residual = 1.26021e-11, No Iterations 1000
diagonal:  Solving for rho, Initial residual = 0, Final residual = 0, No Iterations 0
time step continuity errors : sum local = 4.70153e-15, global = 1.18387e-15, cumulative = 5.59925e-14
ExecutionTime = 64.66 s  ClockTime = 66 s

Time = 0.00475

Courant Number mean: 0.09859 max: 0.924016
diagonal:  Solving for rho, Initial residual = 0, Final residual = 0, No Iterations 0
PIMPLE: iteration 1
smoothSolver:  Solving for Ux, Initial residual = 0.000205552, Final residual = 9.0488e-17, No Iterations 5
smoothSolver:  Solving for Uy, Initial residual = 0.000313184, Final residual = 5.49507e-17, No Iterations 5
smoothSolver:  Solving for e, Initial residual = 0.0275189, Final residual = 6.03511e-13, No Iterations 1000
smoothSolver:  Solving for p, Initial residual = 0.0517493, Final residual = 1.33351e-11, No Iterations 1000
diagonal:  Solving for rho, Initial residual = 0, Final residual = 0, No Iterations 0
time step continuity errors : sum local = 5.12345e-15, global = 2.39865e-15, cumulative = 5.83911e-14
PIMPLE: iteration 2
smoothSolver:  Solving for Ux, Initial residual = 3.22352e-06, Final residual = 1.19137e-16, No Iterations 4
smoothSolver:  Solving for Uy, Initial residual = 5.33495e-06, Final residual = 1.02118e-16, No Iterations 4
smoothSolver:  Solving for e, Initial residual = 0.00495616, Final residual = 6.15992e-13, No Iterations 1000
smoothSolver:  Solving for p, Initial residual = 0.002744, Final residual = 1.27866e-11, No Iterations 1000
diagonal:  Solving for rho, Initial residual = 0, Final residual = 0, No Iterations 0
time step continuity errors : sum local = 4.68611e-15, global = 1.44979e-15, cumulative = 5.98409e-14
ExecutionTime = 68.2 s  ClockTime = 69 s

Time = 0.005

Courant Number mean: 0.0985889 max: 0.92038
diagonal:  Solving for rho, Initial residual = 0, Final residual = 0, No Iterations 0
PIMPLE: iteration 1
smoothSolver:  Solving for Ux, Initial residual = 0.000201613, Final residual = 9.06259e-17, No Iterations 5
smoothSolver:  Solving for Uy, Initial residual = 0.000307015, Final residual = 5.35767e-17, No Iterations 5
smoothSolver:  Solving for e, Initial residual = 0.0274653, Final residual = 6.13876e-13, No Iterations 1000
smoothSolver:  Solving for p, Initial residual = 0.0506651, Final residual = 1.33439e-11, No Iterations 1000
diagonal:  Solving for rho, Initial residual = 0, Final residual = 0, No Iterations 0
time step continuity errors : sum local = 5.09149e-15, global = 2.40883e-15, cumulative = 6.22498e-14
PIMPLE: iteration 2
smoothSolver:  Solving for Ux, Initial residual = 3.10703e-06, Final residual = 1.15307e-16, No Iterations 4
smoothSolver:  Solving for Uy, Initial residual = 5.12742e-06, Final residual = 9.60817e-17, No Iterations 4
smoothSolver:  Solving for e, Initial residual = 0.00476418, Final residual = 6.13999e-13, No Iterations 1000
smoothSolver:  Solving for p, Initial residual = 0.00261879, Final residual = 1.28195e-11, No Iterations 1000
diagonal:  Solving for rho, Initial residual = 0, Final residual = 0, No Iterations 0
time step continuity errors : sum local = 4.68192e-15, global = 1.50927e-15, cumulative = 6.3759e-14
ExecutionTime = 71.75 s  ClockTime = 73 s

Time = 0.00525

Courant Number mean: 0.0985879 max: 0.916746
diagonal:  Solving for rho, Initial residual = 0, Final residual = 0, No Iterations 0
PIMPLE: iteration 1
smoothSolver:  Solving for Ux, Initial residual = 0.000197656, Final residual = 8.80521e-17, No Iterations 5
smoothSolver:  Solving for Uy, Initial residual = 0.000300661, Final residual = 5.2112e-17, No Iterations 5
smoothSolver:  Solving for e, Initial residual = 0.0272925, Final residual = 6.31801e-13, No Iterations 1000
smoothSolver:  Solving for p, Initial residual = 0.0498086, Final residual = 1.33489e-11, No Iterations 1000
diagonal:  Solving for rho, Initial residual = 0, Final residual = 0, No Iterations 0
time step continuity errors : sum local = 5.03795e-15, global = 2.33082e-15, cumulative = 6.60899e-14
PIMPLE: iteration 2
smoothSolver:  Solving for Ux, Initial residual = 3.00695e-06, Final residual = 1.11307e-16, No Iterations 4
smoothSolver:  Solving for Uy, Initial residual = 4.9512e-06, Final residual = 8.53443e-17, No Iterations 4
smoothSolver:  Solving for e, Initial residual = 0.00465089, Final residual = 6.31404e-13, No Iterations 1000
smoothSolver:  Solving for p, Initial residual = 0.00252767, Final residual = 1.26735e-11, No Iterations 1000
diagonal:  Solving for rho, Initial residual = 0, Final residual = 0, No Iterations 0
time step continuity errors : sum local = 4.65526e-15, global = 1.41389e-15, cumulative = 6.75037e-14
ExecutionTime = 75.43 s  ClockTime = 77 s

Time = 0.0055

Courant Number mean: 0.0985869 max: 0.912585
diagonal:  Solving for rho, Initial residual = 0, Final residual = 0, No Iterations 0
PIMPLE: iteration 1
smoothSolver:  Solving for Ux, Initial residual = 0.00019408, Final residual = 8.78598e-17, No Iterations 5
smoothSolver:  Solving for Uy, Initial residual = 0.000295142, Final residual = 4.92578e-17, No Iterations 5
smoothSolver:  Solving for e, Initial residual = 0.0270836, Final residual = 6.15424e-13, No Iterations 1000
smoothSolver:  Solving for p, Initial residual = 0.047834, Final residual = 1.32594e-11, No Iterations 1000
diagonal:  Solving for rho, Initial residual = 0, Final residual = 0, No Iterations 0
time step continuity errors : sum local = 5.13999e-15, global = 2.40862e-15, cumulative = 6.99124e-14
PIMPLE: iteration 2
smoothSolver:  Solving for Ux, Initial residual = 2.91812e-06, Final residual = 1.07162e-16, No Iterations 4
smoothSolver:  Solving for Uy, Initial residual = 4.80611e-06, Final residual = 8.48558e-17, No Iterations 4
smoothSolver:  Solving for e, Initial residual = 0.00453943, Final residual = 6.15944e-13, No Iterations 1000
smoothSolver:  Solving for p, Initial residual = 0.00246546, Final residual = 1.26908e-11, No Iterations 1000
diagonal:  Solving for rho, Initial residual = 0, Final residual = 0, No Iterations 0
time step continuity errors : sum local = 4.77484e-15, global = 1.5612e-15, cumulative = 7.14736e-14
ExecutionTime = 79.13 s  ClockTime = 80 s

Time = 0.00575

Courant Number mean: 0.0985865 max: 0.908857
diagonal:  Solving for rho, Initial residual = 0, Final residual = 0, No Iterations 0
PIMPLE: iteration 1
smoothSolver:  Solving for Ux, Initial residual = 0.000190844, Final residual = 8.62919e-17, No Iterations 5
smoothSolver:  Solving for Uy, Initial residual = 0.00028992, Final residual = 4.73e-17, No Iterations 5
smoothSolver:  Solving for e, Initial residual = 0.0267871, Final residual = 6.29196e-13, No Iterations 1000
smoothSolver:  Solving for p, Initial residual = 0.0474022, Final residual = 1.33774e-11, No Iterations 1000
diagonal:  Solving for rho, Initial residual = 0, Final residual = 0, No Iterations 0
time step continuity errors : sum local = 5.19342e-15, global = 2.47562e-15, cumulative = 7.39492e-14
PIMPLE: iteration 2
smoothSolver:  Solving for Ux, Initial residual = 2.8619e-06, Final residual = 1.06491e-16, No Iterations 4
smoothSolver:  Solving for Uy, Initial residual = 4.73867e-06, Final residual = 8.1299e-17, No Iterations 4
smoothSolver:  Solving for e, Initial residual = 0.0043551, Final residual = 6.26191e-13, No Iterations 1000
smoothSolver:  Solving for p, Initial residual = 0.00240452, Final residual = 1.28105e-11, No Iterations 1000
diagonal:  Solving for rho, Initial residual = 0, Final residual = 0, No Iterations 0
time step continuity errors : sum local = 4.79801e-15, global = 1.59486e-15, cumulative = 7.5544e-14
ExecutionTime = 82.77 s  ClockTime = 84 s

Time = 0.006

Courant Number mean: 0.098586 max: 0.904631
diagonal:  Solving for rho, Initial residual = 0, Final residual = 0, No Iterations 0
PIMPLE: iteration 1
smoothSolver:  Solving for Ux, Initial residual = 0.000187512, Final residual = 8.58935e-17, No Iterations 5
smoothSolver:  Solving for Uy, Initial residual = 0.000285051, Final residual = 4.70855e-17, No Iterations 5
smoothSolver:  Solving for e, Initial residual = 0.0264717, Final residual = 6.29918e-13, No Iterations 1000
smoothSolver:  Solving for p, Initial residual = 0.0470637, Final residual = 1.32646e-11, No Iterations 1000
diagonal:  Solving for rho, Initial residual = 0, Final residual = 0, No Iterations 0
time step continuity errors : sum local = 5.13167e-15, global = 2.28446e-15, cumulative = 7.78285e-14
PIMPLE: iteration 2
smoothSolver:  Solving for Ux, Initial residual = 2.79377e-06, Final residual = 1.02729e-16, No Iterations 4
smoothSolver:  Solving for Uy, Initial residual = 4.5778e-06, Final residual = 7.38309e-17, No Iterations 4
smoothSolver:  Solving for e, Initial residual = 0.00422906, Final residual = 6.44914e-13, No Iterations 1000
smoothSolver:  Solving for p, Initial residual = 0.00233055, Final residual = 1.27975e-11, No Iterations 1000
diagonal:  Solving for rho, Initial residual = 0, Final residual = 0, No Iterations 0
time step continuity errors : sum local = 4.76655e-15, global = 1.41604e-15, cumulative = 7.92445e-14
ExecutionTime = 86.51 s  ClockTime = 88 s

Time = 0.00625

Courant Number mean: 0.0985857 max: 0.900336
diagonal:  Solving for rho, Initial residual = 0, Final residual = 0, No Iterations 0
PIMPLE: iteration 1
smoothSolver:  Solving for Ux, Initial residual = 0.000184354, Final residual = 8.25483e-17, No Iterations 5
smoothSolver:  Solving for Uy, Initial residual = 0.000279667, Final residual = 4.71941e-17, No Iterations 5
smoothSolver:  Solving for e, Initial residual = 0.0261058, Final residual = 6.38508e-13, No Iterations 1000
smoothSolver:  Solving for p, Initial residual = 0.0463054, Final residual = 1.3323e-11, No Iterations 1000
diagonal:  Solving for rho, Initial residual = 0, Final residual = 0, No Iterations 0
time step continuity errors : sum local = 5.10399e-15, global = 2.37987e-15, cumulative = 8.16244e-14
PIMPLE: iteration 2
smoothSolver:  Solving for Ux, Initial residual = 2.73964e-06, Final residual = 1.02555e-16, No Iterations 4
smoothSolver:  Solving for Uy, Initial residual = 4.51501e-06, Final residual = 7.05717e-17, No Iterations 4
smoothSolver:  Solving for e, Initial residual = 0.00409685, Final residual = 6.34189e-13, No Iterations 1000
smoothSolver:  Solving for p, Initial residual = 0.0022763, Final residual = 1.27606e-11, No Iterations 1000
diagonal:  Solving for rho, Initial residual = 0, Final residual = 0, No Iterations 0
time step continuity errors : sum local = 4.7442e-15, global = 1.54457e-15, cumulative = 8.3169e-14
ExecutionTime = 90.03 s  ClockTime = 91 s

Time = 0.0065

Courant Number mean: 0.0985851 max: 0.896062
diagonal:  Solving for rho, Initial residual = 0, Final residual = 0, No Iterations 0
PIMPLE: iteration 1
smoothSolver:  Solving for Ux, Initial residual = 0.000181189, Final residual = 8.26743e-17, No Iterations 5
smoothSolver:  Solving for Uy, Initial residual = 0.000274982, Final residual = 4.48857e-17, No Iterations 5
smoothSolver:  Solving for e, Initial residual = 0.0257409, Final residual = 6.36311e-13, No Iterations 1000
smoothSolver:  Solving for p, Initial residual = 0.0454001, Final residual = 1.32238e-11, No Iterations 1000
diagonal:  Solving for rho, Initial residual = 0, Final residual = 0, No Iterations 0
time step continuity errors : sum local = 5.09437e-15, global = 2.222e-15, cumulative = 8.5391e-14
PIMPLE: iteration 2
smoothSolver:  Solving for Ux, Initial residual = 2.6719e-06, Final residual = 1.01004e-16, No Iterations 4
smoothSolver:  Solving for Uy, Initial residual = 4.38919e-06, Final residual = 7.17325e-17, No Iterations 4
smoothSolver:  Solving for e, Initial residual = 0.00393876, Final residual = 6.34961e-13, No Iterations 1000
smoothSolver:  Solving for p, Initial residual = 0.00220259, Final residual = 1.27031e-11, No Iterations 1000
diagonal:  Solving for rho, Initial residual = 0, Final residual = 0, No Iterations 0
time step continuity errors : sum local = 4.81683e-15, global = 1.39208e-15, cumulative = 8.67831e-14
ExecutionTime = 93.75 s  ClockTime = 95 s

Time = 0.00675

Courant Number mean: 0.0985844 max: 0.891159
diagonal:  Solving for rho, Initial residual = 0, Final residual = 0, No Iterations 0
PIMPLE: iteration 1
smoothSolver:  Solving for Ux, Initial residual = 0.000178331, Final residual = 8.25494e-17, No Iterations 5
smoothSolver:  Solving for Uy, Initial residual = 0.000270602, Final residual = 4.44825e-17, No Iterations 5
smoothSolver:  Solving for e, Initial residual = 0.0253813, Final residual = 6.29976e-13, No Iterations 1000
smoothSolver:  Solving for p, Initial residual = 0.0443563, Final residual = 1.32877e-11, No Iterations 1000
diagonal:  Solving for rho, Initial residual = 0, Final residual = 0, No Iterations 0
time step continuity errors : sum local = 5.19885e-15, global = 2.2936e-15, cumulative = 8.90767e-14
PIMPLE: iteration 2
smoothSolver:  Solving for Ux, Initial residual = 2.59093e-06, Final residual = 1.00235e-16, No Iterations 4
smoothSolver:  Solving for Uy, Initial residual = 4.27988e-06, Final residual = 6.76379e-17, No Iterations 4
smoothSolver:  Solving for e, Initial residual = 0.00384933, Final residual = 6.42275e-13, No Iterations 1000
smoothSolver:  Solving for p, Initial residual = 0.00214696, Final residual = 1.28672e-11, No Iterations 1000
diagonal:  Solving for rho, Initial residual = 0, Final residual = 0, No Iterations 0
time step continuity errors : sum local = 4.86126e-15, global = 1.26325e-15, cumulative = 9.03399e-14
ExecutionTime = 98.08 s  ClockTime = 99 s

Time = 0.007

Courant Number mean: 0.0985834 max: 0.886757
diagonal:  Solving for rho, Initial residual = 0, Final residual = 0, No Iterations 0
PIMPLE: iteration 1
smoothSolver:  Solving for Ux, Initial residual = 0.000175489, Final residual = 9.53623e-16, No Iterations 4
smoothSolver:  Solving for Uy, Initial residual = 0.000266309, Final residual = 4.34733e-17, No Iterations 5
smoothSolver:  Solving for e, Initial residual = 0.0249586, Final residual = 6.3446e-13, No Iterations 1000
smoothSolver:  Solving for p, Initial residual = 0.043325, Final residual = 1.32293e-11, No Iterations 1000
diagonal:  Solving for rho, Initial residual = 0, Final residual = 0, No Iterations 0
time step continuity errors : sum local = 5.16761e-15, global = 2.14475e-15, cumulative = 9.24847e-14
PIMPLE: iteration 2
smoothSolver:  Solving for Ux, Initial residual = 2.54583e-06, Final residual = 9.82317e-17, No Iterations 4
smoothSolver:  Solving for Uy, Initial residual = 4.17502e-06, Final residual = 6.49562e-17, No Iterations 4
smoothSolver:  Solving for e, Initial residual = 0.00377622, Final residual = 6.26911e-13, No Iterations 1000
smoothSolver:  Solving for p, Initial residual = 0.00211755, Final residual = 1.26926e-11, No Iterations 1000
diagonal:  Solving for rho, Initial residual = 0, Final residual = 0, No Iterations 0
time step continuity errors : sum local = 4.85943e-15, global = 1.45377e-15, cumulative = 9.39384e-14
ExecutionTime = 102.37 s  ClockTime = 104 s

Time = 0.00725

Courant Number mean: 0.0985825 max: 0.881852
diagonal:  Solving for rho, Initial residual = 0, Final residual = 0, No Iterations 0
PIMPLE: iteration 1
smoothSolver:  Solving for Ux, Initial residual = 0.000172886, Final residual = 8.67145e-16, No Iterations 4
smoothSolver:  Solving for Uy, Initial residual = 0.000262267, Final residual = 4.3217e-17, No Iterations 5
smoothSolver:  Solving for e, Initial residual = 0.0245401, Final residual = 6.33979e-13, No Iterations 1000
smoothSolver:  Solving for p, Initial residual = 0.0428647, Final residual = 1.30983e-11, No Iterations 1000
diagonal:  Solving for rho, Initial residual = 0, Final residual = 0, No Iterations 0
time step continuity errors : sum local = 5.21157e-15, global = 2.28165e-15, cumulative = 9.62201e-14
PIMPLE: iteration 2
smoothSolver:  Solving for Ux, Initial residual = 2.50484e-06, Final residual = 9.66379e-17, No Iterations 4
smoothSolver:  Solving for Uy, Initial residual = 4.11439e-06, Final residual = 6.25337e-17, No Iterations 4
smoothSolver:  Solving for e, Initial residual = 0.00364959, Final residual = 6.1957e-13, No Iterations 1000
smoothSolver:  Solving for p, Initial residual = 0.00208477, Final residual = 1.27015e-11, No Iterations 1000
diagonal:  Solving for rho, Initial residual = 0, Final residual = 0, No Iterations 0
time step continuity errors : sum local = 4.8112e-15, global = 1.41711e-15, cumulative = 9.76372e-14
ExecutionTime = 106.23 s  ClockTime = 108 s

Time = 0.0075

Courant Number mean: 0.0985815 max: 0.876647
diagonal:  Solving for rho, Initial residual = 0, Final residual = 0, No Iterations 0
PIMPLE: iteration 1
smoothSolver:  Solving for Ux, Initial residual = 0.000170262, Final residual = 7.92177e-16, No Iterations 4
smoothSolver:  Solving for Uy, Initial residual = 0.000258204, Final residual = 4.32827e-17, No Iterations 5
smoothSolver:  Solving for e, Initial residual = 0.0241187, Final residual = 6.14869e-13, No Iterations 1000
smoothSolver:  Solving for p, Initial residual = 0.0421914, Final residual = 1.31499e-11, No Iterations 1000
diagonal:  Solving for rho, Initial residual = 0, Final residual = 0, No Iterations 0
time step continuity errors : sum local = 5.09656e-15, global = 2.17909e-15, cumulative = 9.98163e-14
PIMPLE: iteration 2
smoothSolver:  Solving for Ux, Initial residual = 2.43243e-06, Final residual = 9.37645e-17, No Iterations 4
smoothSolver:  Solving for Uy, Initial residual = 4.00755e-06, Final residual = 6.16299e-17, No Iterations 4
smoothSolver:  Solving for e, Initial residual = 0.00352985, Final residual = 6.21196e-13, No Iterations 1000
smoothSolver:  Solving for p, Initial residual = 0.00202762, Final residual = 1.25727e-11, No Iterations 1000
diagonal:  Solving for rho, Initial residual = 0, Final residual = 0, No Iterations 0
time step continuity errors : sum local = 4.80262e-15, global = 1.33469e-15, cumulative = 1.01151e-13
ExecutionTime = 110.13 s  ClockTime = 111 s

Time = 0.00775

Courant Number mean: 0.0985805 max: 0.871698
diagonal:  Solving for rho, Initial residual = 0, Final residual = 0, No Iterations 0
PIMPLE: iteration 1
smoothSolver:  Solving for Ux, Initial residual = 0.000167979, Final residual = 7.31591e-16, No Iterations 4
smoothSolver:  Solving for Uy, Initial residual = 0.000254433, Final residual = 4.23125e-17, No Iterations 5
smoothSolver:  Solving for e, Initial residual = 0.0236703, Final residual = 6.09503e-13, No Iterations 1000
smoothSolver:  Solving for p, Initial residual = 0.0414276, Final residual = 1.31205e-11, No Iterations 1000
diagonal:  Solving for rho, Initial residual = 0, Final residual = 0, No Iterations 0
time step continuity errors : sum local = 5.16287e-15, global = 2.33672e-15, cumulative = 1.03488e-13
PIMPLE: iteration 2
smoothSolver:  Solving for Ux, Initial residual = 2.38662e-06, Final residual = 9.30051e-17, No Iterations 4
smoothSolver:  Solving for Uy, Initial residual = 3.90798e-06, Final residual = 5.81892e-17, No Iterations 4
smoothSolver:  Solving for e, Initial residual = 0.00340824, Final residual = 6.09231e-13, No Iterations 1000
smoothSolver:  Solving for p, Initial residual = 0.00197892, Final residual = 1.26968e-11, No Iterations 1000
diagonal:  Solving for rho, Initial residual = 0, Final residual = 0, No Iterations 0
time step continuity errors : sum local = 4.8762e-15, global = 1.4818e-15, cumulative = 1.04969e-13
ExecutionTime = 113.73 s  ClockTime = 115 s

Time = 0.008

Courant Number mean: 0.0985794 max: 0.866332
diagonal:  Solving for rho, Initial residual = 0, Final residual = 0, No Iterations 0
PIMPLE: iteration 1
smoothSolver:  Solving for Ux, Initial residual = 0.000165564, Final residual = 6.74235e-16, No Iterations 4
smoothSolver:  Solving for Uy, Initial residual = 0.000250998, Final residual = 9.59462e-16, No Iterations 4
smoothSolver:  Solving for e, Initial residual = 0.0232323, Final residual = 6.11578e-13, No Iterations 1000
smoothSolver:  Solving for p, Initial residual = 0.0405733, Final residual = 1.31182e-11, No Iterations 1000
diagonal:  Solving for rho, Initial residual = 0, Final residual = 0, No Iterations 0
time step continuity errors : sum local = 5.11218e-15, global = 2.22289e-15, cumulative = 1.07192e-13
PIMPLE: iteration 2
smoothSolver:  Solving for Ux, Initial residual = 2.343e-06, Final residual = 9.14232e-17, No Iterations 4
smoothSolver:  Solving for Uy, Initial residual = 3.84377e-06, Final residual = 5.76592e-17, No Iterations 4
smoothSolver:  Solving for e, Initial residual = 0.00332489, Final residual = 6.20661e-13, No Iterations 1000
smoothSolver:  Solving for p, Initial residual = 0.00194782, Final residual = 1.26287e-11, No Iterations 1000
diagonal:  Solving for rho, Initial residual = 0, Final residual = 0, No Iterations 0
time step continuity errors : sum local = 4.84586e-15, global = 1.35619e-15, cumulative = 1.08549e-13
ExecutionTime = 117.37 s  ClockTime = 119 s

Time = 0.00825

Courant Number mean: 0.0985787 max: 0.860643
diagonal:  Solving for rho, Initial residual = 0, Final residual = 0, No Iterations 0
PIMPLE: iteration 1
smoothSolver:  Solving for Ux, Initial residual = 0.0001634, Final residual = 6.28897e-16, No Iterations 4
smoothSolver:  Solving for Uy, Initial residual = 0.000247307, Final residual = 8.90868e-16, No Iterations 4
smoothSolver:  Solving for e, Initial residual = 0.0228078, Final residual = 6.06712e-13, No Iterations 1000
smoothSolver:  Solving for p, Initial residual = 0.0399852, Final residual = 1.30436e-11, No Iterations 1000
diagonal:  Solving for rho, Initial residual = 0, Final residual = 0, No Iterations 0
time step continuity errors : sum local = 5.10622e-15, global = 2.17803e-15, cumulative = 1.10727e-13
PIMPLE: iteration 2
smoothSolver:  Solving for Ux, Initial residual = 2.2689e-06, Final residual = 9.05992e-17, No Iterations 4
smoothSolver:  Solving for Uy, Initial residual = 3.73612e-06, Final residual = 5.39947e-17, No Iterations 4
smoothSolver:  Solving for e, Initial residual = 0.00321177, Final residual = 6.09217e-13, No Iterations 1000
smoothSolver:  Solving for p, Initial residual = 0.00191433, Final residual = 1.25507e-11, No Iterations 1000
diagonal:  Solving for rho, Initial residual = 0, Final residual = 0, No Iterations 0
time step continuity errors : sum local = 4.85019e-15, global = 1.20591e-15, cumulative = 1.11933e-13
ExecutionTime = 120.94 s  ClockTime = 122 s

Time = 0.0085

Courant Number mean: 0.0985776 max: 0.855314
diagonal:  Solving for rho, Initial residual = 0, Final residual = 0, No Iterations 0
PIMPLE: iteration 1
smoothSolver:  Solving for Ux, Initial residual = 0.000161087, Final residual = 5.83829e-16, No Iterations 4
smoothSolver:  Solving for Uy, Initial residual = 0.000243652, Final residual = 8.25728e-16, No Iterations 4
smoothSolver:  Solving for e, Initial residual = 0.0223815, Final residual = 6.1351e-13, No Iterations 1000
smoothSolver:  Solving for p, Initial residual = 0.0393955, Final residual = 1.30106e-11, No Iterations 1000
diagonal:  Solving for rho, Initial residual = 0, Final residual = 0, No Iterations 0
time step continuity errors : sum local = 5.12517e-15, global = 2.29811e-15, cumulative = 1.14231e-13
PIMPLE: iteration 2
smoothSolver:  Solving for Ux, Initial residual = 2.24753e-06, Final residual = 9.19021e-17, No Iterations 4
smoothSolver:  Solving for Uy, Initial residual = 3.6712e-06, Final residual = 5.36822e-17, No Iterations 4
smoothSolver:  Solving for e, Initial residual = 0.00311403, Final residual = 6.11095e-13, No Iterations 1000
smoothSolver:  Solving for p, Initial residual = 0.00182808, Final residual = 1.24726e-11, No Iterations 1000
diagonal:  Solving for rho, Initial residual = 0, Final residual = 0, No Iterations 0
time step continuity errors : sum local = 4.82584e-15, global = 1.38985e-15, cumulative = 1.1562e-13
ExecutionTime = 124.55 s  ClockTime = 126 s

Time = 0.00875

Courant Number mean: 0.0985766 max: 0.849444
diagonal:  Solving for rho, Initial residual = 0, Final residual = 0, No Iterations 0
PIMPLE: iteration 1
smoothSolver:  Solving for Ux, Initial residual = 0.00015927, Final residual = 5.43737e-16, No Iterations 4
smoothSolver:  Solving for Uy, Initial residual = 0.000240238, Final residual = 7.65688e-16, No Iterations 4
smoothSolver:  Solving for e, Initial residual = 0.0220065, Final residual = 6.11097e-13, No Iterations 1000
smoothSolver:  Solving for p, Initial residual = 0.0386009, Final residual = 1.28843e-11, No Iterations 1000
diagonal:  Solving for rho, Initial residual = 0, Final residual = 0, No Iterations 0
time step continuity errors : sum local = 5.03777e-15, global = 2.15398e-15, cumulative = 1.17774e-13
PIMPLE: iteration 2
smoothSolver:  Solving for Ux, Initial residual = 2.18412e-06, Final residual = 9.01327e-17, No Iterations 4
smoothSolver:  Solving for Uy, Initial residual = 3.59262e-06, Final residual = 5.19846e-17, No Iterations 4
smoothSolver:  Solving for e, Initial residual = 0.00303636, Final residual = 6.15827e-13, No Iterations 1000
smoothSolver:  Solving for p, Initial residual = 0.00184626, Final residual = 1.24525e-11, No Iterations 1000
diagonal:  Solving for rho, Initial residual = 0, Final residual = 0, No Iterations 0
time step continuity errors : sum local = 4.82871e-15, global = 1.33943e-15, cumulative = 1.19114e-13
ExecutionTime = 128.1 s  ClockTime = 129 s

Time = 0.009

Courant Number mean: 0.0985754 max: 0.843118
diagonal:  Solving for rho, Initial residual = 0, Final residual = 0, No Iterations 0
PIMPLE: iteration 1
smoothSolver:  Solving for Ux, Initial residual = 0.000157289, Final residual = 5.03019e-16, No Iterations 4
smoothSolver:  Solving for Uy, Initial residual = 0.000237105, Final residual = 7.06955e-16, No Iterations 4
smoothSolver:  Solving for e, Initial residual = 0.021606, Final residual = 6.11377e-13, No Iterations 1000
smoothSolver:  Solving for p, Initial residual = 0.0376712, Final residual = 1.29138e-11, No Iterations 1000
diagonal:  Solving for rho, Initial residual = 0, Final residual = 0, No Iterations 0
time step continuity errors : sum local = 5.22354e-15, global = 2.38286e-15, cumulative = 1.21497e-13
PIMPLE: iteration 2
smoothSolver:  Solving for Ux, Initial residual = 2.15422e-06, Final residual = 9.05723e-17, No Iterations 4
smoothSolver:  Solving for Uy, Initial residual = 3.51415e-06, Final residual = 5.15836e-17, No Iterations 4
smoothSolver:  Solving for e, Initial residual = 0.00294579, Final residual = 5.9716e-13, No Iterations 1000
smoothSolver:  Solving for p, Initial residual = 0.00180687, Final residual = 1.265e-11, No Iterations 1000
diagonal:  Solving for rho, Initial residual = 0, Final residual = 0, No Iterations 0
time step continuity errors : sum local = 4.85356e-15, global = 1.40581e-15, cumulative = 1.22903e-13
ExecutionTime = 131.73 s  ClockTime = 133 s

Time = 0.00925

Courant Number mean: 0.0985743 max: 0.842029
diagonal:  Solving for rho, Initial residual = 0, Final residual = 0, No Iterations 0
PIMPLE: iteration 1
smoothSolver:  Solving for Ux, Initial residual = 0.000155169, Final residual = 4.6631e-16, No Iterations 4
smoothSolver:  Solving for Uy, Initial residual = 0.000234239, Final residual = 6.55763e-16, No Iterations 4
smoothSolver:  Solving for e, Initial residual = 0.0212248, Final residual = 5.97428e-13, No Iterations 1000
smoothSolver:  Solving for p, Initial residual = 0.0371283, Final residual = 1.26839e-11, No Iterations 1000
diagonal:  Solving for rho, Initial residual = 0, Final residual = 0, No Iterations 0
time step continuity errors : sum local = 4.99437e-15, global = 2.04449e-15, cumulative = 1.24947e-13
PIMPLE: iteration 2
smoothSolver:  Solving for Ux, Initial residual = 2.09501e-06, Final residual = 9.09201e-17, No Iterations 4
smoothSolver:  Solving for Uy, Initial residual = 3.42202e-06, Final residual = 5.11267e-17, No Iterations 4
smoothSolver:  Solving for e, Initial residual = 0.0028716, Final residual = 5.90436e-13, No Iterations 1000
smoothSolver:  Solving for p, Initial residual = 0.00175704, Final residual = 1.22972e-11, No Iterations 1000
diagonal:  Solving for rho, Initial residual = 0, Final residual = 0, No Iterations 0
time step continuity errors : sum local = 4.80631e-15, global = 1.23659e-15, cumulative = 1.26184e-13
ExecutionTime = 135.32 s  ClockTime = 137 s

Time = 0.0095

Courant Number mean: 0.0985728 max: 0.847109
diagonal:  Solving for rho, Initial residual = 0, Final residual = 0, No Iterations 0
PIMPLE: iteration 1
smoothSolver:  Solving for Ux, Initial residual = 0.00015328, Final residual = 4.31237e-16, No Iterations 4
smoothSolver:  Solving for Uy, Initial residual = 0.000231368, Final residual = 6.03775e-16, No Iterations 4
smoothSolver:  Solving for e, Initial residual = 0.0208701, Final residual = 5.87372e-13, No Iterations 1000
smoothSolver:  Solving for p, Initial residual = 0.0364072, Final residual = 1.27043e-11, No Iterations 1000
diagonal:  Solving for rho, Initial residual = 0, Final residual = 0, No Iterations 0
time step continuity errors : sum local = 5.13694e-15, global = 2.28762e-15, cumulative = 1.28471e-13
PIMPLE: iteration 2
smoothSolver:  Solving for Ux, Initial residual = 2.03515e-06, Final residual = 8.89887e-17, No Iterations 4
smoothSolver:  Solving for Uy, Initial residual = 3.31737e-06, Final residual = 4.88476e-17, No Iterations 4
smoothSolver:  Solving for e, Initial residual = 0.00280979, Final residual = 5.80999e-13, No Iterations 1000
smoothSolver:  Solving for p, Initial residual = 0.00172101, Final residual = 1.2571e-11, No Iterations 1000
diagonal:  Solving for rho, Initial residual = 0, Final residual = 0, No Iterations 0
time step continuity errors : sum local = 4.8654e-15, global = 1.28535e-15, cumulative = 1.29757e-13
ExecutionTime = 138.87 s  ClockTime = 140 s

Time = 0.00975

Courant Number mean: 0.0985713 max: 0.851865
diagonal:  Solving for rho, Initial residual = 0, Final residual = 0, No Iterations 0
PIMPLE: iteration 1
smoothSolver:  Solving for Ux, Initial residual = 0.000151486, Final residual = 4.01527e-16, No Iterations 4
smoothSolver:  Solving for Uy, Initial residual = 0.000228416, Final residual = 5.55313e-16, No Iterations 4
smoothSolver:  Solving for e, Initial residual = 0.0204941, Final residual = 5.78231e-13, No Iterations 1000
smoothSolver:  Solving for p, Initial residual = 0.0356476, Final residual = 1.27336e-11, No Iterations 1000
diagonal:  Solving for rho, Initial residual = 0, Final residual = 0, No Iterations 0
time step continuity errors : sum local = 5.14955e-15, global = 2.09565e-15, cumulative = 1.31852e-13
PIMPLE: iteration 2
smoothSolver:  Solving for Ux, Initial residual = 1.9851e-06, Final residual = 9.07547e-17, No Iterations 4
smoothSolver:  Solving for Uy, Initial residual = 3.25745e-06, Final residual = 4.87166e-17, No Iterations 4
smoothSolver:  Solving for e, Initial residual = 0.00272494, Final residual = 5.8332e-13, No Iterations 1000
smoothSolver:  Solving for p, Initial residual = 0.00167836, Final residual = 1.22996e-11, No Iterations 1000
diagonal:  Solving for rho, Initial residual = 0, Final residual = 0, No Iterations 0
time step continuity errors : sum local = 4.9011e-15, global = 1.29891e-15, cumulative = 1.33151e-13
ExecutionTime = 142.48 s  ClockTime = 144 s

Time = 0.01

Courant Number mean: 0.0985696 max: 0.85667
diagonal:  Solving for rho, Initial residual = 0, Final residual = 0, No Iterations 0
PIMPLE: iteration 1
smoothSolver:  Solving for Ux, Initial residual = 0.000149813, Final residual = 3.72203e-16, No Iterations 4
smoothSolver:  Solving for Uy, Initial residual = 0.000225422, Final residual = 5.10093e-16, No Iterations 4
smoothSolver:  Solving for e, Initial residual = 0.0201639, Final residual = 5.85528e-13, No Iterations 1000
smoothSolver:  Solving for p, Initial residual = 0.0351431, Final residual = 1.2686e-11, No Iterations 1000
diagonal:  Solving for rho, Initial residual = 0, Final residual = 0, No Iterations 0
time step continuity errors : sum local = 5.16709e-15, global = 2.07148e-15, cumulative = 1.35223e-13
PIMPLE: iteration 2
smoothSolver:  Solving for Ux, Initial residual = 1.9875e-06, Final residual = 8.85534e-17, No Iterations 4
smoothSolver:  Solving for Uy, Initial residual = 3.22035e-06, Final residual = 4.71282e-17, No Iterations 4
smoothSolver:  Solving for e, Initial residual = 0.00264247, Final residual = 5.89232e-13, No Iterations 1000
smoothSolver:  Solving for p, Initial residual = 0.00165661, Final residual = 1.22253e-11, No Iterations 1000
diagonal:  Solving for rho, Initial residual = 0, Final residual = 0, No Iterations 0
time step continuity errors : sum local = 4.89953e-15, global = 1.26126e-15, cumulative = 1.36484e-13
ExecutionTime = 146.18 s  ClockTime = 148 s

writeRegisteredObject rhofunc output:
    writing object rho

    writing object phi

Time = 0.01025

Courant Number mean: 0.098568 max: 0.861413
diagonal:  Solving for rho, Initial residual = 0, Final residual = 0, No Iterations 0
PIMPLE: iteration 1
smoothSolver:  Solving for Ux, Initial residual = 0.000148187, Final residual = 3.44287e-16, No Iterations 4
smoothSolver:  Solving for Uy, Initial residual = 0.000222648, Final residual = 4.66579e-16, No Iterations 4
smoothSolver:  Solving for e, Initial residual = 0.0198245, Final residual = 5.86773e-13, No Iterations 1000
smoothSolver:  Solving for p, Initial residual = 0.034268, Final residual = 1.26496e-11, No Iterations 1000
diagonal:  Solving for rho, Initial residual = 0, Final residual = 0, No Iterations 0
time step continuity errors : sum local = 5.12345e-15, global = 2.00101e-15, cumulative = 1.38485e-13
PIMPLE: iteration 2
smoothSolver:  Solving for Ux, Initial residual = 1.93278e-06, Final residual = 8.88474e-17, No Iterations 4
smoothSolver:  Solving for Uy, Initial residual = 3.15637e-06, Final residual = 4.69238e-17, No Iterations 4
smoothSolver:  Solving for e, Initial residual = 0.00256421, Final residual = 5.87836e-13, No Iterations 1000
smoothSolver:  Solving for p, Initial residual = 0.00159363, Final residual = 1.2264e-11, No Iterations 1000
diagonal:  Solving for rho, Initial residual = 0, Final residual = 0, No Iterations 0
time step continuity errors : sum local = 4.85799e-15, global = 1.19912e-15, cumulative = 1.39684e-13
ExecutionTime = 149.81 s  ClockTime = 151 s

Time = 0.0105

Courant Number mean: 0.0985663 max: 0.865865
diagonal:  Solving for rho, Initial residual = 0, Final residual = 0, No Iterations 0
PIMPLE: iteration 1
smoothSolver:  Solving for Ux, Initial residual = 0.000146423, Final residual = 3.22482e-16, No Iterations 4
smoothSolver:  Solving for Uy, Initial residual = 0.000220073, Final residual = 4.26998e-16, No Iterations 4
smoothSolver:  Solving for e, Initial residual = 0.0194761, Final residual = 5.91831e-13, No Iterations 1000
smoothSolver:  Solving for p, Initial residual = 0.0334908, Final residual = 1.25215e-11, No Iterations 1000
diagonal:  Solving for rho, Initial residual = 0, Final residual = 0, No Iterations 0
time step continuity errors : sum local = 5.10397e-15, global = 1.96013e-15, cumulative = 1.41644e-13
PIMPLE: iteration 2
smoothSolver:  Solving for Ux, Initial residual = 1.87584e-06, Final residual = 8.83214e-17, No Iterations 4
smoothSolver:  Solving for Uy, Initial residual = 3.05322e-06, Final residual = 4.6032e-17, No Iterations 4
smoothSolver:  Solving for e, Initial residual = 0.00249926, Final residual = 6.02889e-13, No Iterations 1000
smoothSolver:  Solving for p, Initial residual = 0.00156829, Final residual = 1.21934e-11, No Iterations 1000
diagonal:  Solving for rho, Initial residual = 0, Final residual = 0, No Iterations 0
time step continuity errors : sum local = 4.86475e-15, global = 1.15067e-15, cumulative = 1.42795e-13
ExecutionTime = 153.38 s  ClockTime = 155 s

Time = 0.01075

Courant Number mean: 0.0985648 max: 0.870009
diagonal:  Solving for rho, Initial residual = 0, Final residual = 0, No Iterations 0
PIMPLE: iteration 1
smoothSolver:  Solving for Ux, Initial residual = 0.000144836, Final residual = 2.98603e-16, No Iterations 4
smoothSolver:  Solving for Uy, Initial residual = 0.000217184, Final residual = 3.91667e-16, No Iterations 4
smoothSolver:  Solving for e, Initial residual = 0.0191507, Final residual = 5.93204e-13, No Iterations 1000
smoothSolver:  Solving for p, Initial residual = 0.0331612, Final residual = 1.25675e-11, No Iterations 1000
diagonal:  Solving for rho, Initial residual = 0, Final residual = 0, No Iterations 0
time step continuity errors : sum local = 5.10992e-15, global = 2.00515e-15, cumulative = 1.448e-13
PIMPLE: iteration 2
smoothSolver:  Solving for Ux, Initial residual = 1.84539e-06, Final residual = 8.49866e-17, No Iterations 4
smoothSolver:  Solving for Uy, Initial residual = 3.05702e-06, Final residual = 4.71487e-17, No Iterations 4
smoothSolver:  Solving for e, Initial residual = 0.00243005, Final residual = 5.84972e-13, No Iterations 1000
smoothSolver:  Solving for p, Initial residual = 0.00152499, Final residual = 1.2291e-11, No Iterations 1000
diagonal:  Solving for rho, Initial residual = 0, Final residual = 0, No Iterations 0
time step continuity errors : sum local = 4.93784e-15, global = 1.23748e-15, cumulative = 1.46037e-13
ExecutionTime = 156.95 s  ClockTime = 158 s

Time = 0.011

Courant Number mean: 0.0985631 max: 0.873886
diagonal:  Solving for rho, Initial residual = 0, Final residual = 0, No Iterations 0
PIMPLE: iteration 1
smoothSolver:  Solving for Ux, Initial residual = 0.000143326, Final residual = 2.79323e-16, No Iterations 4
smoothSolver:  Solving for Uy, Initial residual = 0.000214633, Final residual = 3.59963e-16, No Iterations 4
smoothSolver:  Solving for e, Initial residual = 0.0188241, Final residual = 5.93232e-13, No Iterations 1000
smoothSolver:  Solving for p, Initial residual = 0.0326366, Final residual = 1.23998e-11, No Iterations 1000
diagonal:  Solving for rho, Initial residual = 0, Final residual = 0, No Iterations 0
time step continuity errors : sum local = 5.15565e-15, global = 2.02654e-15, cumulative = 1.48064e-13
PIMPLE: iteration 2
smoothSolver:  Solving for Ux, Initial residual = 1.8123e-06, Final residual = 8.75292e-17, No Iterations 4
smoothSolver:  Solving for Uy, Initial residual = 2.96335e-06, Final residual = 4.60296e-17, No Iterations 4
smoothSolver:  Solving for e, Initial residual = 0.00235961, Final residual = 5.8092e-13, No Iterations 1000
smoothSolver:  Solving for p, Initial residual = 0.00151015, Final residual = 1.20811e-11, No Iterations 1000
diagonal:  Solving for rho, Initial residual = 0, Final residual = 0, No Iterations 0
time step continuity errors : sum local = 4.94102e-15, global = 1.1494e-15, cumulative = 1.49213e-13
ExecutionTime = 160.54 s  ClockTime = 162 s

Time = 0.01125

Courant Number mean: 0.0985614 max: 0.87751
diagonal:  Solving for rho, Initial residual = 0, Final residual = 0, No Iterations 0
PIMPLE: iteration 1
smoothSolver:  Solving for Ux, Initial residual = 0.000141686, Final residual = 2.62475e-16, No Iterations 4
smoothSolver:  Solving for Uy, Initial residual = 0.00021188, Final residual = 3.31693e-16, No Iterations 4
smoothSolver:  Solving for e, Initial residual = 0.0184892, Final residual = 5.81104e-13, No Iterations 1000
smoothSolver:  Solving for p, Initial residual = 0.0317535, Final residual = 1.24859e-11, No Iterations 1000
diagonal:  Solving for rho, Initial residual = 0, Final residual = 0, No Iterations 0
time step continuity errors : sum local = 5.07043e-15, global = 1.67454e-15, cumulative = 1.50888e-13
PIMPLE: iteration 2
smoothSolver:  Solving for Ux, Initial residual = 1.76771e-06, Final residual = 8.4725e-17, No Iterations 4
smoothSolver:  Solving for Uy, Initial residual = 2.89932e-06, Final residual = 4.54528e-17, No Iterations 4
smoothSolver:  Solving for e, Initial residual = 0.00228583, Final residual = 5.66678e-13, No Iterations 1000
smoothSolver:  Solving for p, Initial residual = 0.00143854, Final residual = 1.20246e-11, No Iterations 1000
diagonal:  Solving for rho, Initial residual = 0, Final residual = 0, No Iterations 0
time step continuity errors : sum local = 4.90943e-15, global = 9.8262e-16, cumulative = 1.51871e-13
ExecutionTime = 164.15 s  ClockTime = 166 s

Time = 0.0115

Courant Number mean: 0.0985596 max: 0.881158
diagonal:  Solving for rho, Initial residual = 0, Final residual = 0, No Iterations 0
PIMPLE: iteration 1
smoothSolver:  Solving for Ux, Initial residual = 0.000140234, Final residual = 2.47436e-16, No Iterations 4
smoothSolver:  Solving for Uy, Initial residual = 0.000209466, Final residual = 3.08223e-16, No Iterations 4
smoothSolver:  Solving for e, Initial residual = 0.0181759, Final residual = 5.72065e-13, No Iterations 1000
smoothSolver:  Solving for p, Initial residual = 0.0310768, Final residual = 1.2413e-11, No Iterations 1000
diagonal:  Solving for rho, Initial residual = 0, Final residual = 0, No Iterations 0
time step continuity errors : sum local = 5.19543e-15, global = 1.9031e-15, cumulative = 1.53774e-13
PIMPLE: iteration 2
smoothSolver:  Solving for Ux, Initial residual = 1.73423e-06, Final residual = 8.51687e-17, No Iterations 4
smoothSolver:  Solving for Uy, Initial residual = 2.84688e-06, Final residual = 4.62446e-17, No Iterations 4
smoothSolver:  Solving for e, Initial residual = 0.00224133, Final residual = 5.59321e-13, No Iterations 1000
smoothSolver:  Solving for p, Initial residual = 0.00143215, Final residual = 1.20578e-11, No Iterations 1000
diagonal:  Solving for rho, Initial residual = 0, Final residual = 0, No Iterations 0
time step continuity errors : sum local = 4.9259e-15, global = 1.11897e-15, cumulative = 1.54893e-13
ExecutionTime = 167.7 s  ClockTime = 169 s

Time = 0.01175

Courant Number mean: 0.0985578 max: 0.884786
diagonal:  Solving for rho, Initial residual = 0, Final residual = 0, No Iterations 0
PIMPLE: iteration 1
smoothSolver:  Solving for Ux, Initial residual = 0.000138619, Final residual = 2.35504e-16, No Iterations 4
smoothSolver:  Solving for Uy, Initial residual = 0.000207082, Final residual = 2.87671e-16, No Iterations 4
smoothSolver:  Solving for e, Initial residual = 0.0178598, Final residual = 5.66647e-13, No Iterations 1000
smoothSolver:  Solving for p, Initial residual = 0.0302977, Final residual = 1.23485e-11, No Iterations 1000
diagonal:  Solving for rho, Initial residual = 0, Final residual = 0, No Iterations 0
time step continuity errors : sum local = 5.14236e-15, global = 1.80544e-15, cumulative = 1.56698e-13
PIMPLE: iteration 2
smoothSolver:  Solving for Ux, Initial residual = 1.66303e-06, Final residual = 8.47085e-17, No Iterations 4
smoothSolver:  Solving for Uy, Initial residual = 2.7602e-06, Final residual = 4.55198e-17, No Iterations 4
smoothSolver:  Solving for e, Initial residual = 0.00219471, Final residual = 5.67216e-13, No Iterations 1000
smoothSolver:  Solving for p, Initial residual = 0.00139339, Final residual = 1.2137e-11, No Iterations 1000
diagonal:  Solving for rho, Initial residual = 0, Final residual = 0, No Iterations 0
time step continuity errors : sum local = 4.84495e-15, global = 1.07867e-15, cumulative = 1.57777e-13
ExecutionTime = 171.4 s  ClockTime = 173 s

Time = 0.012

Courant Number mean: 0.0985558 max: 0.88817
diagonal:  Solving for rho, Initial residual = 0, Final residual = 0, No Iterations 0
PIMPLE: iteration 1
smoothSolver:  Solving for Ux, Initial residual = 0.000137053, Final residual = 2.239e-16, No Iterations 4
smoothSolver:  Solving for Uy, Initial residual = 0.000204588, Final residual = 2.71357e-16, No Iterations 4
smoothSolver:  Solving for e, Initial residual = 0.0175206, Final residual = 5.61839e-13, No Iterations 1000
smoothSolver:  Solving for p, Initial residual = 0.0295371, Final residual = 1.23979e-11, No Iterations 1000
diagonal:  Solving for rho, Initial residual = 0, Final residual = 0, No Iterations 0
time step continuity errors : sum local = 5.02721e-15, global = 1.70608e-15, cumulative = 1.59483e-13
PIMPLE: iteration 2
smoothSolver:  Solving for Ux, Initial residual = 1.5844e-06, Final residual = 8.32416e-17, No Iterations 4
smoothSolver:  Solving for Uy, Initial residual = 2.68836e-06, Final residual = 4.60968e-17, No Iterations 4
smoothSolver:  Solving for e, Initial residual = 0.00216157, Final residual = 5.52618e-13, No Iterations 1000
smoothSolver:  Solving for p, Initial residual = 0.00137498, Final residual = 1.20535e-11, No Iterations 1000
diagonal:  Solving for rho, Initial residual = 0, Final residual = 0, No Iterations 0
time step continuity errors : sum local = 4.84217e-15, global = 9.417e-16, cumulative = 1.60425e-13
ExecutionTime = 174.96 s  ClockTime = 176 s

Time = 0.01225

Courant Number mean: 0.0985538 max: 0.891325
diagonal:  Solving for rho, Initial residual = 0, Final residual = 0, No Iterations 0
PIMPLE: iteration 1
smoothSolver:  Solving for Ux, Initial residual = 0.000135633, Final residual = 2.15694e-16, No Iterations 4
smoothSolver:  Solving for Uy, Initial residual = 0.000202249, Final residual = 2.57275e-16, No Iterations 4
smoothSolver:  Solving for e, Initial residual = 0.0171895, Final residual = 5.58878e-13, No Iterations 1000
smoothSolver:  Solving for p, Initial residual = 0.0290022, Final residual = 1.22301e-11, No Iterations 1000
diagonal:  Solving for rho, Initial residual = 0, Final residual = 0, No Iterations 0
time step continuity errors : sum local = 4.96739e-15, global = 1.76943e-15, cumulative = 1.62194e-13
PIMPLE: iteration 2
smoothSolver:  Solving for Ux, Initial residual = 1.56388e-06, Final residual = 8.21332e-17, No Iterations 4
smoothSolver:  Solving for Uy, Initial residual = 2.66627e-06, Final residual = 4.49417e-17, No Iterations 4
smoothSolver:  Solving for e, Initial residual = 0.00214214, Final residual = 5.62415e-13, No Iterations 1000
smoothSolver:  Solving for p, Initial residual = 0.00135416, Final residual = 1.2137e-11, No Iterations 1000
diagonal:  Solving for rho, Initial residual = 0, Final residual = 0, No Iterations 0
time step continuity errors : sum local = 4.84904e-15, global = 9.42707e-16, cumulative = 1.63137e-13
ExecutionTime = 178.5 s  ClockTime = 180 s

Time = 0.0125

Courant Number mean: 0.0985518 max: 0.894266
diagonal:  Solving for rho, Initial residual = 0, Final residual = 0, No Iterations 0
PIMPLE: iteration 1
smoothSolver:  Solving for Ux, Initial residual = 0.000134096, Final residual = 2.086e-16, No Iterations 4
smoothSolver:  Solving for Uy, Initial residual = 0.000200014, Final residual = 2.45905e-16, No Iterations 4
smoothSolver:  Solving for e, Initial residual = 0.0168637, Final residual = 5.71476e-13, No Iterations 1000
smoothSolver:  Solving for p, Initial residual = 0.0283267, Final residual = 1.24119e-11, No Iterations 1000
diagonal:  Solving for rho, Initial residual = 0, Final residual = 0, No Iterations 0
time step continuity errors : sum local = 4.98856e-15, global = 1.63951e-15, cumulative = 1.64776e-13
PIMPLE: iteration 2
smoothSolver:  Solving for Ux, Initial residual = 1.4895e-06, Final residual = 8.40721e-17, No Iterations 4
smoothSolver:  Solving for Uy, Initial residual = 2.60531e-06, Final residual = 4.56182e-17, No Iterations 4
smoothSolver:  Solving for e, Initial residual = 0.00210307, Final residual = 5.68488e-13, No Iterations 1000
smoothSolver:  Solving for p, Initial residual = 0.00133494, Final residual = 1.20277e-11, No Iterations 1000
diagonal:  Solving for rho, Initial residual = 0, Final residual = 0, No Iterations 0
time step continuity errors : sum local = 4.87219e-15, global = 9.29042e-16, cumulative = 1.65705e-13
ExecutionTime = 182.07 s  ClockTime = 183 s

Time = 0.01275

Courant Number mean: 0.0985498 max: 0.896993
diagonal:  Solving for rho, Initial residual = 0, Final residual = 0, No Iterations 0
PIMPLE: iteration 1
smoothSolver:  Solving for Ux, Initial residual = 0.000132297, Final residual = 2.02828e-16, No Iterations 4
smoothSolver:  Solving for Uy, Initial residual = 0.000198068, Final residual = 2.36264e-16, No Iterations 4
smoothSolver:  Solving for e, Initial residual = 0.0165674, Final residual = 5.65569e-13, No Iterations 1000
smoothSolver:  Solving for p, Initial residual = 0.0276929, Final residual = 1.22674e-11, No Iterations 1000
diagonal:  Solving for rho, Initial residual = 0, Final residual = 0, No Iterations 0
time step continuity errors : sum local = 5.16132e-15, global = 1.81e-15, cumulative = 1.67515e-13
PIMPLE: iteration 2
smoothSolver:  Solving for Ux, Initial residual = 1.41282e-06, Final residual = 8.28785e-17, No Iterations 4
smoothSolver:  Solving for Uy, Initial residual = 2.54961e-06, Final residual = 4.59174e-17, No Iterations 4
smoothSolver:  Solving for e, Initial residual = 0.00205609, Final residual = 5.69364e-13, No Iterations 1000
smoothSolver:  Solving for p, Initial residual = 0.0012937, Final residual = 1.20096e-11, No Iterations 1000
diagonal:  Solving for rho, Initial residual = 0, Final residual = 0, No Iterations 0
time step continuity errors : sum local = 4.89872e-15, global = 1.06247e-15, cumulative = 1.68578e-13
ExecutionTime = 185.63 s  ClockTime = 187 s

Time = 0.013

Courant Number mean: 0.0985477 max: 0.899592
diagonal:  Solving for rho, Initial residual = 0, Final residual = 0, No Iterations 0
PIMPLE: iteration 1
smoothSolver:  Solving for Ux, Initial residual = 0.000130302, Final residual = 1.99055e-16, No Iterations 4
smoothSolver:  Solving for Uy, Initial residual = 0.000196021, Final residual = 2.29431e-16, No Iterations 4
smoothSolver:  Solving for e, Initial residual = 0.0163199, Final residual = 5.63967e-13, No Iterations 1000
smoothSolver:  Solving for p, Initial residual = 0.0274817, Final residual = 1.23405e-11, No Iterations 1000
diagonal:  Solving for rho, Initial residual = 0, Final residual = 0, No Iterations 0
time step continuity errors : sum local = 5.20488e-15, global = 1.88858e-15, cumulative = 1.70466e-13
PIMPLE: iteration 2
smoothSolver:  Solving for Ux, Initial residual = 1.3584e-06, Final residual = 8.30059e-17, No Iterations 4
smoothSolver:  Solving for Uy, Initial residual = 2.51874e-06, Final residual = 4.55746e-17, No Iterations 4
smoothSolver:  Solving for e, Initial residual = 0.00203051, Final residual = 5.57034e-13, No Iterations 1000
smoothSolver:  Solving for p, Initial residual = 0.00127873, Final residual = 1.20686e-11, No Iterations 1000
diagonal:  Solving for rho, Initial residual = 0, Final residual = 0, No Iterations 0
time step continuity errors : sum local = 4.84848e-15, global = 9.66766e-16, cumulative = 1.71433e-13
ExecutionTime = 189.19 s  ClockTime = 191 s

Time = 0.01325

Courant Number mean: 0.0985459 max: 0.90236
diagonal:  Solving for rho, Initial residual = 0, Final residual = 0, No Iterations 0
PIMPLE: iteration 1
smoothSolver:  Solving for Ux, Initial residual = 0.000128037, Final residual = 1.94972e-16, No Iterations 4
smoothSolver:  Solving for Uy, Initial residual = 0.000193818, Final residual = 2.23499e-16, No Iterations 4
smoothSolver:  Solving for e, Initial residual = 0.0161235, Final residual = 5.61585e-13, No Iterations 1000
smoothSolver:  Solving for p, Initial residual = 0.0272823, Final residual = 1.23819e-11, No Iterations 1000
diagonal:  Solving for rho, Initial residual = 0, Final residual = 0, No Iterations 0
time step continuity errors : sum local = 5.22162e-15, global = 1.97512e-15, cumulative = 1.73408e-13
PIMPLE: iteration 2
smoothSolver:  Solving for Ux, Initial residual = 1.28332e-06, Final residual = 8.20135e-17, No Iterations 4
smoothSolver:  Solving for Uy, Initial residual = 2.45727e-06, Final residual = 4.54273e-17, No Iterations 4
smoothSolver:  Solving for e, Initial residual = 0.00199846, Final residual = 5.5679e-13, No Iterations 1000
smoothSolver:  Solving for p, Initial residual = 0.00125211, Final residual = 1.20299e-11, No Iterations 1000
diagonal:  Solving for rho, Initial residual = 0, Final residual = 0, No Iterations 0
[...]
smoothSolver:  Solving for Uy, Initial residual = 4.3308e-07, Final residual = 3.78243e-17, No Iterations 3
smoothSolver:  Solving for e, Initial residual = 1.27445e-05, Final residual = 3.9137e-14, No Iterations 1000
smoothSolver:  Solving for p, Initial residual = 2.34215e-06, Final residual = 3.71488e-13, No Iterations 1000
diagonal:  Solving for rho, Initial residual = 0, Final residual = 0, No Iterations 0
time step continuity errors : sum local = 5.63803e-15, global = 1.01018e-15, cumulative = 4.31903e-12
ExecutionTime = 8635.95 s  ClockTime = 9163 s

Time = 0.597

Courant Number mean: 0.00809994 max: 0.153968
diagonal:  Solving for rho, Initial residual = 0, Final residual = 0, No Iterations 0
PIMPLE: iteration 1
smoothSolver:  Solving for Ux, Initial residual = 0.000948748, Final residual = 3.2707e-17, No Iterations 3
smoothSolver:  Solving for Uy, Initial residual = 0.00146224, Final residual = 6.98044e-17, No Iterations 3
smoothSolver:  Solving for e, Initial residual = 0.00373881, Final residual = 3.89452e-14, No Iterations 1000
smoothSolver:  Solving for p, Initial residual = 0.00383936, Final residual = 3.70337e-13, No Iterations 1000
diagonal:  Solving for rho, Initial residual = 0, Final residual = 0, No Iterations 0
time step continuity errors : sum local = 5.59381e-15, global = 7.25764e-16, cumulative = 4.31976e-12
PIMPLE: iteration 2
smoothSolver:  Solving for Ux, Initial residual = 5.06173e-07, Final residual = 2.24124e-16, No Iterations 2
smoothSolver:  Solving for Uy, Initial residual = 4.36585e-07, Final residual = 3.74331e-17, No Iterations 3
smoothSolver:  Solving for e, Initial residual = 1.27215e-05, Final residual = 3.9068e-14, No Iterations 1000
smoothSolver:  Solving for p, Initial residual = 2.33478e-06, Final residual = 3.65034e-13, No Iterations 1000
diagonal:  Solving for rho, Initial residual = 0, Final residual = 0, No Iterations 0
time step continuity errors : sum local = 5.64942e-15, global = 9.22948e-16, cumulative = 4.32068e-12
ExecutionTime = 8639.59 s  ClockTime = 9167 s

Time = 0.59725

Courant Number mean: 0.00812063 max: 0.153978
diagonal:  Solving for rho, Initial residual = 0, Final residual = 0, No Iterations 0
PIMPLE: iteration 1
smoothSolver:  Solving for Ux, Initial residual = 0.000954828, Final residual = 3.24022e-17, No Iterations 3
smoothSolver:  Solving for Uy, Initial residual = 0.00147507, Final residual = 6.84397e-17, No Iterations 3
smoothSolver:  Solving for e, Initial residual = 0.00369997, Final residual = 3.91307e-14, No Iterations 1000
smoothSolver:  Solving for p, Initial residual = 0.00379807, Final residual = 3.68939e-13, No Iterations 1000
diagonal:  Solving for rho, Initial residual = 0, Final residual = 0, No Iterations 0
time step continuity errors : sum local = 5.60243e-15, global = 6.87602e-16, cumulative = 4.32137e-12
PIMPLE: iteration 2
smoothSolver:  Solving for Ux, Initial residual = 5.05773e-07, Final residual = 2.27168e-16, No Iterations 2
smoothSolver:  Solving for Uy, Initial residual = 4.40498e-07, Final residual = 3.80968e-17, No Iterations 3
smoothSolver:  Solving for e, Initial residual = 1.27007e-05, Final residual = 3.81533e-14, No Iterations 1000
smoothSolver:  Solving for p, Initial residual = 2.33186e-06, Final residual = 3.62726e-13, No Iterations 1000
diagonal:  Solving for rho, Initial residual = 0, Final residual = 0, No Iterations 0
time step continuity errors : sum local = 5.59412e-15, global = 9.99222e-16, cumulative = 4.32237e-12
ExecutionTime = 8643.33 s  ClockTime = 9171 s

Time = 0.5975

Courant Number mean: 0.00814156 max: 0.153987
diagonal:  Solving for rho, Initial residual = 0, Final residual = 0, No Iterations 0
PIMPLE: iteration 1
smoothSolver:  Solving for Ux, Initial residual = 0.000960771, Final residual = 3.29983e-17, No Iterations 3
smoothSolver:  Solving for Uy, Initial residual = 0.0014879, Final residual = 7.1203e-17, No Iterations 3
smoothSolver:  Solving for e, Initial residual = 0.00366196, Final residual = 3.80857e-14, No Iterations 1000
smoothSolver:  Solving for p, Initial residual = 0.00375778, Final residual = 3.60525e-13, No Iterations 1000
diagonal:  Solving for rho, Initial residual = 0, Final residual = 0, No Iterations 0
time step continuity errors : sum local = 5.60986e-15, global = 7.61048e-16, cumulative = 4.32313e-12
PIMPLE: iteration 2
smoothSolver:  Solving for Ux, Initial residual = 5.05326e-07, Final residual = 2.30659e-16, No Iterations 2
smoothSolver:  Solving for Uy, Initial residual = 4.43535e-07, Final residual = 3.89191e-17, No Iterations 3
smoothSolver:  Solving for e, Initial residual = 1.2678e-05, Final residual = 3.79521e-14, No Iterations 1000
smoothSolver:  Solving for p, Initial residual = 2.32576e-06, Final residual = 3.56867e-13, No Iterations 1000
diagonal:  Solving for rho, Initial residual = 0, Final residual = 0, No Iterations 0
time step continuity errors : sum local = 5.61762e-15, global = 9.40764e-16, cumulative = 4.32407e-12
ExecutionTime = 8647.03 s  ClockTime = 9175 s

Time = 0.59775

Courant Number mean: 0.00816272 max: 0.153992
diagonal:  Solving for rho, Initial residual = 0, Final residual = 0, No Iterations 0
PIMPLE: iteration 1
smoothSolver:  Solving for Ux, Initial residual = 0.000966579, Final residual = 3.34618e-17, No Iterations 3
smoothSolver:  Solving for Uy, Initial residual = 0.00150073, Final residual = 7.01632e-17, No Iterations 3
smoothSolver:  Solving for e, Initial residual = 0.00362476, Final residual = 3.74755e-14, No Iterations 1000
smoothSolver:  Solving for p, Initial residual = 0.00371837, Final residual = 3.58805e-13, No Iterations 1000
diagonal:  Solving for rho, Initial residual = 0, Final residual = 0, No Iterations 0
time step continuity errors : sum local = 5.64133e-15, global = 7.91316e-16, cumulative = 4.32486e-12
PIMPLE: iteration 2
smoothSolver:  Solving for Ux, Initial residual = 5.04902e-07, Final residual = 2.34442e-16, No Iterations 2
smoothSolver:  Solving for Uy, Initial residual = 4.46638e-07, Final residual = 3.7771e-17, No Iterations 3
smoothSolver:  Solving for e, Initial residual = 1.26628e-05, Final residual = 3.77215e-14, No Iterations 1000
smoothSolver:  Solving for p, Initial residual = 2.32121e-06, Final residual = 3.59805e-13, No Iterations 1000
diagonal:  Solving for rho, Initial residual = 0, Final residual = 0, No Iterations 0
time step continuity errors : sum local = 5.65296e-15, global = 9.76837e-16, cumulative = 4.32584e-12
ExecutionTime = 8650.68 s  ClockTime = 9179 s

Time = 0.598

Courant Number mean: 0.00818412 max: 0.153994
diagonal:  Solving for rho, Initial residual = 0, Final residual = 0, No Iterations 0
PIMPLE: iteration 1
smoothSolver:  Solving for Ux, Initial residual = 0.000972247, Final residual = 3.30637e-17, No Iterations 3
smoothSolver:  Solving for Uy, Initial residual = 0.00151358, Final residual = 7.36313e-17, No Iterations 3
smoothSolver:  Solving for e, Initial residual = 0.00358836, Final residual = 3.78946e-14, No Iterations 1000
smoothSolver:  Solving for p, Initial residual = 0.00367985, Final residual = 3.55874e-13, No Iterations 1000
diagonal:  Solving for rho, Initial residual = 0, Final residual = 0, No Iterations 0
time step continuity errors : sum local = 5.64647e-15, global = 8.66196e-16, cumulative = 4.3267e-12
PIMPLE: iteration 2
smoothSolver:  Solving for Ux, Initial residual = 5.04347e-07, Final residual = 2.38305e-16, No Iterations 2
smoothSolver:  Solving for Uy, Initial residual = 4.50858e-07, Final residual = 3.8228e-17, No Iterations 3
smoothSolver:  Solving for e, Initial residual = 1.26435e-05, Final residual = 3.73264e-14, No Iterations 1000
smoothSolver:  Solving for p, Initial residual = 2.31801e-06, Final residual = 3.51587e-13, No Iterations 1000
diagonal:  Solving for rho, Initial residual = 0, Final residual = 0, No Iterations 0
time step continuity errors : sum local = 5.65132e-15, global = 8.69875e-16, cumulative = 4.32757e-12
ExecutionTime = 8654.34 s  ClockTime = 9182 s

Time = 0.59825

Courant Number mean: 0.00820575 max: 0.153994
diagonal:  Solving for rho, Initial residual = 0, Final residual = 0, No Iterations 0
PIMPLE: iteration 1
smoothSolver:  Solving for Ux, Initial residual = 0.000977783, Final residual = 3.35892e-17, No Iterations 3
smoothSolver:  Solving for Uy, Initial residual = 0.00152645, Final residual = 7.46061e-17, No Iterations 3
smoothSolver:  Solving for e, Initial residual = 0.0035528, Final residual = 3.70895e-14, No Iterations 1000
smoothSolver:  Solving for p, Initial residual = 0.00364229, Final residual = 3.5065e-13, No Iterations 1000
diagonal:  Solving for rho, Initial residual = 0, Final residual = 0, No Iterations 0
time step continuity errors : sum local = 5.68808e-15, global = 9.21846e-16, cumulative = 4.32849e-12
PIMPLE: iteration 2
smoothSolver:  Solving for Ux, Initial residual = 5.03717e-07, Final residual = 2.39926e-16, No Iterations 2
smoothSolver:  Solving for Uy, Initial residual = 4.53346e-07, Final residual = 3.6964e-17, No Iterations 3
smoothSolver:  Solving for e, Initial residual = 1.26193e-05, Final residual = 3.66223e-14, No Iterations 1000
smoothSolver:  Solving for p, Initial residual = 2.31318e-06, Final residual = 3.51554e-13, No Iterations 1000
diagonal:  Solving for rho, Initial residual = 0, Final residual = 0, No Iterations 0
time step continuity errors : sum local = 5.59518e-15, global = 9.45018e-16, cumulative = 4.32944e-12
ExecutionTime = 8657.94 s  ClockTime = 9186 s

Time = 0.5985

Courant Number mean: 0.00822761 max: 0.153992
diagonal:  Solving for rho, Initial residual = 0, Final residual = 0, No Iterations 0
PIMPLE: iteration 1
smoothSolver:  Solving for Ux, Initial residual = 0.000983177, Final residual = 3.26731e-17, No Iterations 3
smoothSolver:  Solving for Uy, Initial residual = 0.00153935, Final residual = 7.60068e-17, No Iterations 3
smoothSolver:  Solving for e, Initial residual = 0.00351803, Final residual = 3.66121e-14, No Iterations 1000
smoothSolver:  Solving for p, Initial residual = 0.0036055, Final residual = 3.48429e-13, No Iterations 1000
diagonal:  Solving for rho, Initial residual = 0, Final residual = 0, No Iterations 0
time step continuity errors : sum local = 5.6627e-15, global = 9.07532e-16, cumulative = 4.33035e-12
PIMPLE: iteration 2
smoothSolver:  Solving for Ux, Initial residual = 5.03048e-07, Final residual = 2.44344e-16, No Iterations 2
smoothSolver:  Solving for Uy, Initial residual = 4.57958e-07, Final residual = 3.69755e-17, No Iterations 3
smoothSolver:  Solving for e, Initial residual = 1.25946e-05, Final residual = 3.64344e-14, No Iterations 1000
smoothSolver:  Solving for p, Initial residual = 2.30758e-06, Final residual = 3.46315e-13, No Iterations 1000
diagonal:  Solving for rho, Initial residual = 0, Final residual = 0, No Iterations 0
time step continuity errors : sum local = 5.65311e-15, global = 9.18745e-16, cumulative = 4.33126e-12
ExecutionTime = 8661.67 s  ClockTime = 9190 s

Time = 0.59875

Courant Number mean: 0.00824969 max: 0.154013
diagonal:  Solving for rho, Initial residual = 0, Final residual = 0, No Iterations 0
PIMPLE: iteration 1
smoothSolver:  Solving for Ux, Initial residual = 0.00098844, Final residual = 3.40915e-17, No Iterations 3
smoothSolver:  Solving for Uy, Initial residual = 0.00155234, Final residual = 7.81643e-17, No Iterations 3
smoothSolver:  Solving for e, Initial residual = 0.003484, Final residual = 3.64486e-14, No Iterations 1000
smoothSolver:  Solving for p, Initial residual = 0.00356953, Final residual = 3.43783e-13, No Iterations 1000
diagonal:  Solving for rho, Initial residual = 0, Final residual = 0, No Iterations 0
time step continuity errors : sum local = 5.6453e-15, global = 9.06291e-16, cumulative = 4.33217e-12
PIMPLE: iteration 2
smoothSolver:  Solving for Ux, Initial residual = 5.02418e-07, Final residual = 2.49922e-16, No Iterations 2
smoothSolver:  Solving for Uy, Initial residual = 4.6093e-07, Final residual = 3.89951e-17, No Iterations 3
smoothSolver:  Solving for e, Initial residual = 1.25659e-05, Final residual = 3.66266e-14, No Iterations 1000
smoothSolver:  Solving for p, Initial residual = 2.3046e-06, Final residual = 3.38575e-13, No Iterations 1000
diagonal:  Solving for rho, Initial residual = 0, Final residual = 0, No Iterations 0
time step continuity errors : sum local = 5.59506e-15, global = 9.80515e-16, cumulative = 4.33315e-12
ExecutionTime = 8665.38 s  ClockTime = 9193 s

Time = 0.599

Courant Number mean: 0.00827202 max: 0.154037
diagonal:  Solving for rho, Initial residual = 0, Final residual = 0, No Iterations 0
PIMPLE: iteration 1
smoothSolver:  Solving for Ux, Initial residual = 0.000993565, Final residual = 3.25042e-17, No Iterations 3
smoothSolver:  Solving for Uy, Initial residual = 0.00156545, Final residual = 7.91898e-17, No Iterations 3
smoothSolver:  Solving for e, Initial residual = 0.00345066, Final residual = 3.59496e-14, No Iterations 1000
smoothSolver:  Solving for p, Initial residual = 0.00353431, Final residual = 3.41948e-13, No Iterations 1000
diagonal:  Solving for rho, Initial residual = 0, Final residual = 0, No Iterations 0
time step continuity errors : sum local = 5.66243e-15, global = 8.77591e-16, cumulative = 4.33403e-12
PIMPLE: iteration 2
smoothSolver:  Solving for Ux, Initial residual = 5.01727e-07, Final residual = 2.53677e-16, No Iterations 2
smoothSolver:  Solving for Uy, Initial residual = 4.65595e-07, Final residual = 3.69388e-17, No Iterations 3
smoothSolver:  Solving for e, Initial residual = 1.25387e-05, Final residual = 3.55554e-14, No Iterations 1000
smoothSolver:  Solving for p, Initial residual = 2.30019e-06, Final residual = 3.36986e-13, No Iterations 1000
diagonal:  Solving for rho, Initial residual = 0, Final residual = 0, No Iterations 0
time step continuity errors : sum local = 5.63693e-15, global = 8.97247e-16, cumulative = 4.33493e-12
ExecutionTime = 8669.09 s  ClockTime = 9197 s

Time = 0.59925

Courant Number mean: 0.00829458 max: 0.154059
diagonal:  Solving for rho, Initial residual = 0, Final residual = 0, No Iterations 0
PIMPLE: iteration 1
smoothSolver:  Solving for Ux, Initial residual = 0.000998562, Final residual = 3.32953e-17, No Iterations 3
smoothSolver:  Solving for Uy, Initial residual = 0.00157874, Final residual = 8.09883e-17, No Iterations 3
smoothSolver:  Solving for e, Initial residual = 0.00341801, Final residual = 3.57945e-14, No Iterations 1000
smoothSolver:  Solving for p, Initial residual = 0.00349985, Final residual = 3.37203e-13, No Iterations 1000
diagonal:  Solving for rho, Initial residual = 0, Final residual = 0, No Iterations 0
time step continuity errors : sum local = 5.62763e-15, global = 8.90336e-16, cumulative = 4.33582e-12
PIMPLE: iteration 2
smoothSolver:  Solving for Ux, Initial residual = 5.00905e-07, Final residual = 2.58309e-16, No Iterations 2
smoothSolver:  Solving for Uy, Initial residual = 4.68473e-07, Final residual = 3.71114e-17, No Iterations 3
smoothSolver:  Solving for e, Initial residual = 1.25092e-05, Final residual = 3.56487e-14, No Iterations 1000
smoothSolver:  Solving for p, Initial residual = 2.29477e-06, Final residual = 3.36322e-13, No Iterations 1000
diagonal:  Solving for rho, Initial residual = 0, Final residual = 0, No Iterations 0
time step continuity errors : sum local = 5.67438e-15, global = 9.53833e-16, cumulative = 4.33677e-12
ExecutionTime = 8672.87 s  ClockTime = 9201 s

Time = 0.5995

Courant Number mean: 0.00831736 max: 0.15408
diagonal:  Solving for rho, Initial residual = 0, Final residual = 0, No Iterations 0
PIMPLE: iteration 1
smoothSolver:  Solving for Ux, Initial residual = 0.00100342, Final residual = 3.36495e-17, No Iterations 3
smoothSolver:  Solving for Uy, Initial residual = 0.0015923, Final residual = 8.22911e-17, No Iterations 3
smoothSolver:  Solving for e, Initial residual = 0.003386, Final residual = 3.52304e-14, No Iterations 1000
smoothSolver:  Solving for p, Initial residual = 0.00346604, Final residual = 3.33558e-13, No Iterations 1000
diagonal:  Solving for rho, Initial residual = 0, Final residual = 0, No Iterations 0
time step continuity errors : sum local = 5.62882e-15, global = 1.00025e-15, cumulative = 4.33777e-12
PIMPLE: iteration 2
smoothSolver:  Solving for Ux, Initial residual = 5.00062e-07, Final residual = 2.65204e-16, No Iterations 2
smoothSolver:  Solving for Uy, Initial residual = 4.72575e-07, Final residual = 3.79712e-17, No Iterations 3
smoothSolver:  Solving for e, Initial residual = 1.24773e-05, Final residual = 3.48106e-14, No Iterations 1000
smoothSolver:  Solving for p, Initial residual = 2.28902e-06, Final residual = 3.29275e-13, No Iterations 1000
diagonal:  Solving for rho, Initial residual = 0, Final residual = 0, No Iterations 0
time step continuity errors : sum local = 5.62832e-15, global = 8.98516e-16, cumulative = 4.33867e-12
ExecutionTime = 8676.67 s  ClockTime = 9205 s

Time = 0.59975

Courant Number mean: 0.00834038 max: 0.154099
diagonal:  Solving for rho, Initial residual = 0, Final residual = 0, No Iterations 0
PIMPLE: iteration 1
smoothSolver:  Solving for Ux, Initial residual = 0.00100816, Final residual = 3.42119e-17, No Iterations 3
smoothSolver:  Solving for Uy, Initial residual = 0.00160642, Final residual = 8.51375e-17, No Iterations 3
smoothSolver:  Solving for e, Initial residual = 0.00335462, Final residual = 3.48256e-14, No Iterations 1000
smoothSolver:  Solving for p, Initial residual = 0.00343295, Final residual = 3.29823e-13, No Iterations 1000
diagonal:  Solving for rho, Initial residual = 0, Final residual = 0, No Iterations 0
time step continuity errors : sum local = 5.68975e-15, global = 9.41437e-16, cumulative = 4.33961e-12
PIMPLE: iteration 2
smoothSolver:  Solving for Ux, Initial residual = 4.99278e-07, Final residual = 2.69844e-16, No Iterations 2
smoothSolver:  Solving for Uy, Initial residual = 4.76393e-07, Final residual = 3.6273e-17, No Iterations 3
smoothSolver:  Solving for e, Initial residual = 1.24486e-05, Final residual = 3.43511e-14, No Iterations 1000
smoothSolver:  Solving for p, Initial residual = 2.28417e-06, Final residual = 3.24957e-13, No Iterations 1000
diagonal:  Solving for rho, Initial residual = 0, Final residual = 0, No Iterations 0
time step continuity errors : sum local = 5.62458e-15, global = 9.72899e-16, cumulative = 4.34058e-12
ExecutionTime = 8680.31 s  ClockTime = 9209 s

Time = 0.6

Courant Number mean: 0.00836363 max: 0.154111
diagonal:  Solving for rho, Initial residual = 0, Final residual = 0, No Iterations 0
PIMPLE: iteration 1
smoothSolver:  Solving for Ux, Initial residual = 0.00101276, Final residual = 3.2826e-17, No Iterations 3
smoothSolver:  Solving for Uy, Initial residual = 0.00162064, Final residual = 8.63019e-17, No Iterations 3
smoothSolver:  Solving for e, Initial residual = 0.00332384, Final residual = 3.49334e-14, No Iterations 1000
smoothSolver:  Solving for p, Initial residual = 0.00340054, Final residual = 3.27972e-13, No Iterations 1000
diagonal:  Solving for rho, Initial residual = 0, Final residual = 0, No Iterations 0
time step continuity errors : sum local = 5.65898e-15, global = 9.46098e-16, cumulative = 4.34153e-12
PIMPLE: iteration 2
smoothSolver:  Solving for Ux, Initial residual = 4.98603e-07, Final residual = 2.73471e-16, No Iterations 2
smoothSolver:  Solving for Uy, Initial residual = 4.81026e-07, Final residual = 3.722e-17, No Iterations 3
smoothSolver:  Solving for e, Initial residual = 1.24203e-05, Final residual = 3.4468e-14, No Iterations 1000
smoothSolver:  Solving for p, Initial residual = 2.28021e-06, Final residual = 3.23313e-13, No Iterations 1000
diagonal:  Solving for rho, Initial residual = 0, Final residual = 0, No Iterations 0
time step continuity errors : sum local = 5.65478e-15, global = 9.35704e-16, cumulative = 4.34247e-12
ExecutionTime = 8684.06 s  ClockTime = 9212 s

writeRegisteredObject rhofunc output:
    writing object rho

    writing object phi

End

