/*---------------------------------------------------------------------------*\
| =========                 |                                                 |
| \\      /  F ield         | OpenFOAM: The Open Source CFD Toolbox           |
|  \\    /   O peration     | Version:  3.0.x                                 |
|   \\  /    A nd           | Web:      www.OpenFOAM.org                      |
|    \\/     M anipulation  |                                                 |
\*---------------------------------------------------------------------------*/
Build  : 3.0.x-4b5e129783d9
Exec   : sonicFoam
Date   : Jan 31 2017
Time   : 10:31:44
Host   : "alex-VirtualBox"
PID    : 5518
Case   : /home/alex/OpenFOAM/alex-3.0.x/run/SH6_43_msh3
nProcs : 1
sigFpe : Enabling floating point exception trapping (FOAM_SIGFPE).
fileModificationChecking : Monitoring run-time modified files using timeStampMaster
allowSystemOperations : Allowing user-supplied system call operations

// * * * * * * * * * * * * * * * * * * * * * * * * * * * * * * * * * * * * * //
Create time

Create mesh for time = 0


PIMPLE: no residual control data found. Calculations will employ 2 corrector loops

Reading thermophysical properties

Selecting thermodynamics package 
{
    type            hePsiThermo;
    mixture         pureMixture;
    transport       const;
    thermo          hConst;
    equationOfState perfectGas;
    specie          specie;
    energy          sensibleInternalEnergy;
}

Reading field U

Reading/calculating face flux field phi

Creating turbulence model

Selecting turbulence model type laminar
Creating field kinetic energy K

No MRF models present

No finite volume options present


Starting time loop

Time = 0.00025

Courant Number mean: 0.049465 max: 0.528998
diagonal:  Solving for rho, Initial residual = 0, Final residual = 0, No Iterations 0
PIMPLE: iteration 1
smoothSolver:  Solving for Ux, Initial residual = 0.000135275, Final residual = 7.66314e-17, No Iterations 5
smoothSolver:  Solving for Uy, Initial residual = 0.00020267, Final residual = 3.97546e-17, No Iterations 5
smoothSolver:  Solving for e, Initial residual = 1, Final residual = 1.31494e-12, No Iterations 1000
smoothSolver:  Solving for p, Initial residual = 1, Final residual = 2.65137e-12, No Iterations 1000
diagonal:  Solving for rho, Initial residual = 0, Final residual = 0, No Iterations 0
time step continuity errors : sum local = 9.27073e-16, global = 9.07468e-17, cumulative = 9.07468e-17
PIMPLE: iteration 2
smoothSolver:  Solving for Ux, Initial residual = 0.000788469, Final residual = 7.94757e-17, No Iterations 4
smoothSolver:  Solving for Uy, Initial residual = 0.00121419, Final residual = 3.76814e-17, No Iterations 4
smoothSolver:  Solving for e, Initial residual = 0.0732283, Final residual = 7.11556e-14, No Iterations 1000
smoothSolver:  Solving for p, Initial residual = 0.202638, Final residual = 1.09482e-12, No Iterations 1000
diagonal:  Solving for rho, Initial residual = 0, Final residual = 0, No Iterations 0
time step continuity errors : sum local = 1.04908e-15, global = 1.2677e-16, cumulative = 2.17517e-16
ExecutionTime = 0.94 s  ClockTime = 1 s

Time = 0.0005

Courant Number mean: 0.0491497 max: 0.447212
diagonal:  Solving for rho, Initial residual = 0, Final residual = 0, No Iterations 0
PIMPLE: iteration 1
smoothSolver:  Solving for Ux, Initial residual = 0.00278535, Final residual = 7.57476e-17, No Iterations 5
smoothSolver:  Solving for Uy, Initial residual = 0.00426108, Final residual = 4.08832e-17, No Iterations 5
smoothSolver:  Solving for e, Initial residual = 0.0798752, Final residual = 3.31813e-13, No Iterations 1000
smoothSolver:  Solving for p, Initial residual = 0.353908, Final residual = 2.21204e-12, No Iterations 1000
diagonal:  Solving for rho, Initial residual = 0, Final residual = 0, No Iterations 0
time step continuity errors : sum local = 1.63711e-15, global = 8.492e-16, cumulative = 1.06672e-15
PIMPLE: iteration 2
smoothSolver:  Solving for Ux, Initial residual = 0.000279445, Final residual = 7.62989e-17, No Iterations 4
smoothSolver:  Solving for Uy, Initial residual = 0.000429312, Final residual = 4.35643e-17, No Iterations 4
smoothSolver:  Solving for e, Initial residual = 0.150871, Final residual = 4.26775e-13, No Iterations 1000
smoothSolver:  Solving for p, Initial residual = 0.0478929, Final residual = 2.16491e-12, No Iterations 1000
diagonal:  Solving for rho, Initial residual = 0, Final residual = 0, No Iterations 0
time step continuity errors : sum local = 1.70331e-15, global = -8.47996e-16, cumulative = 2.18721e-16
ExecutionTime = 1.81 s  ClockTime = 2 s

Time = 0.00075

Courant Number mean: 0.0491079 max: 0.455752
diagonal:  Solving for rho, Initial residual = 0, Final residual = 0, No Iterations 0
PIMPLE: iteration 1
smoothSolver:  Solving for Ux, Initial residual = 0.00128835, Final residual = 1.06667e-16, No Iterations 4
smoothSolver:  Solving for Uy, Initial residual = 0.00196456, Final residual = 9.86251e-17, No Iterations 4
smoothSolver:  Solving for e, Initial residual = 0.0413862, Final residual = 3.6932e-13, No Iterations 1000
smoothSolver:  Solving for p, Initial residual = 0.354911, Final residual = 2.58306e-12, No Iterations 1000
diagonal:  Solving for rho, Initial residual = 0, Final residual = 0, No Iterations 0
time step continuity errors : sum local = 1.6432e-15, global = 9.11041e-16, cumulative = 1.12976e-15
PIMPLE: iteration 2
smoothSolver:  Solving for Ux, Initial residual = 0.000244649, Final residual = 7.60846e-17, No Iterations 4
smoothSolver:  Solving for Uy, Initial residual = 0.000377861, Final residual = 4.12667e-17, No Iterations 4
smoothSolver:  Solving for e, Initial residual = 0.040554, Final residual = 3.88905e-13, No Iterations 1000
smoothSolver:  Solving for p, Initial residual = 0.0500959, Final residual = 2.89829e-12, No Iterations 1000
diagonal:  Solving for rho, Initial residual = 0, Final residual = 0, No Iterations 0
time step continuity errors : sum local = 1.65057e-15, global = -6.09104e-16, cumulative = 5.20659e-16
ExecutionTime = 2.69 s  ClockTime = 3 s

Time = 0.001

Courant Number mean: 0.0491104 max: 0.431193
diagonal:  Solving for rho, Initial residual = 0, Final residual = 0, No Iterations 0
PIMPLE: iteration 1
smoothSolver:  Solving for Ux, Initial residual = 0.000670735, Final residual = 8.37487e-17, No Iterations 4
smoothSolver:  Solving for Uy, Initial residual = 0.00100407, Final residual = 4.92349e-17, No Iterations 4
smoothSolver:  Solving for e, Initial residual = 0.0548627, Final residual = 3.92198e-13, No Iterations 1000
smoothSolver:  Solving for p, Initial residual = 0.25736, Final residual = 3.39392e-12, No Iterations 1000
diagonal:  Solving for rho, Initial residual = 0, Final residual = 0, No Iterations 0
time step continuity errors : sum local = 1.59574e-15, global = 7.21349e-16, cumulative = 1.24201e-15
PIMPLE: iteration 2
smoothSolver:  Solving for Ux, Initial residual = 7.45602e-05, Final residual = 8.07019e-17, No Iterations 4
smoothSolver:  Solving for Uy, Initial residual = 0.000115303, Final residual = 4.49304e-17, No Iterations 4
smoothSolver:  Solving for e, Initial residual = 0.0369953, Final residual = 3.94635e-13, No Iterations 1000
smoothSolver:  Solving for p, Initial residual = 0.0406992, Final residual = 3.72223e-12, No Iterations 1000
diagonal:  Solving for rho, Initial residual = 0, Final residual = 0, No Iterations 0
time step continuity errors : sum local = 1.58061e-15, global = 7.18576e-16, cumulative = 1.96058e-15
ExecutionTime = 3.56 s  ClockTime = 4 s

Time = 0.00125

Courant Number mean: 0.0491177 max: 0.412971
diagonal:  Solving for rho, Initial residual = 0, Final residual = 0, No Iterations 0
PIMPLE: iteration 1
smoothSolver:  Solving for Ux, Initial residual = 0.000712378, Final residual = 8.96537e-17, No Iterations 4
smoothSolver:  Solving for Uy, Initial residual = 0.0011004, Final residual = 5.67303e-17, No Iterations 4
smoothSolver:  Solving for e, Initial residual = 0.0417603, Final residual = 3.93801e-13, No Iterations 1000
smoothSolver:  Solving for p, Initial residual = 0.195811, Final residual = 3.64809e-12, No Iterations 1000
diagonal:  Solving for rho, Initial residual = 0, Final residual = 0, No Iterations 0
time step continuity errors : sum local = 1.64444e-15, global = 7.5238e-16, cumulative = 2.71296e-15
PIMPLE: iteration 2
smoothSolver:  Solving for Ux, Initial residual = 4.46511e-05, Final residual = 7.75598e-16, No Iterations 3
smoothSolver:  Solving for Uy, Initial residual = 6.74774e-05, Final residual = 4.46579e-17, No Iterations 4
smoothSolver:  Solving for e, Initial residual = 0.0271936, Final residual = 3.86739e-13, No Iterations 1000
smoothSolver:  Solving for p, Initial residual = 0.0198636, Final residual = 3.28306e-12, No Iterations 1000
diagonal:  Solving for rho, Initial residual = 0, Final residual = 0, No Iterations 0
time step continuity errors : sum local = 1.57786e-15, global = 6.99785e-16, cumulative = 3.41275e-15
ExecutionTime = 4.43 s  ClockTime = 5 s

Time = 0.0015

Courant Number mean: 0.0491402 max: 0.407954
diagonal:  Solving for rho, Initial residual = 0, Final residual = 0, No Iterations 0
PIMPLE: iteration 1
smoothSolver:  Solving for Ux, Initial residual = 0.000602736, Final residual = 9.02524e-17, No Iterations 4
smoothSolver:  Solving for Uy, Initial residual = 0.000924391, Final residual = 4.85583e-17, No Iterations 4
smoothSolver:  Solving for e, Initial residual = 0.0278915, Final residual = 3.91711e-13, No Iterations 1000
smoothSolver:  Solving for p, Initial residual = 0.119776, Final residual = 3.44511e-12, No Iterations 1000
diagonal:  Solving for rho, Initial residual = 0, Final residual = 0, No Iterations 0
time step continuity errors : sum local = 1.62607e-15, global = 8.76955e-16, cumulative = 4.2897e-15
PIMPLE: iteration 2
smoothSolver:  Solving for Ux, Initial residual = 3.34288e-05, Final residual = 6.97726e-16, No Iterations 3
smoothSolver:  Solving for Uy, Initial residual = 5.33086e-05, Final residual = 9.93936e-16, No Iterations 3
smoothSolver:  Solving for e, Initial residual = 0.0203501, Final residual = 3.97132e-13, No Iterations 1000
smoothSolver:  Solving for p, Initial residual = 0.0127183, Final residual = 3.37276e-12, No Iterations 1000
diagonal:  Solving for rho, Initial residual = 0, Final residual = 0, No Iterations 0
time step continuity errors : sum local = 1.62916e-15, global = 7.63471e-16, cumulative = 5.05317e-15
ExecutionTime = 5.31 s  ClockTime = 5 s

Time = 0.00175

Courant Number mean: 0.0491642 max: 0.409542
diagonal:  Solving for rho, Initial residual = 0, Final residual = 0, No Iterations 0
PIMPLE: iteration 1
smoothSolver:  Solving for Ux, Initial residual = 0.000460725, Final residual = 8.48276e-17, No Iterations 4
smoothSolver:  Solving for Uy, Initial residual = 0.000692581, Final residual = 4.40115e-17, No Iterations 4
smoothSolver:  Solving for e, Initial residual = 0.021861, Final residual = 4.11514e-13, No Iterations 1000
smoothSolver:  Solving for p, Initial residual = 0.100472, Final residual = 3.4252e-12, No Iterations 1000
diagonal:  Solving for rho, Initial residual = 0, Final residual = 0, No Iterations 0
time step continuity errors : sum local = 1.7204e-15, global = 8.67021e-16, cumulative = 5.9202e-15
PIMPLE: iteration 2
smoothSolver:  Solving for Ux, Initial residual = 2.37418e-05, Final residual = 3.63379e-16, No Iterations 3
smoothSolver:  Solving for Uy, Initial residual = 3.76281e-05, Final residual = 4.63773e-16, No Iterations 3
smoothSolver:  Solving for e, Initial residual = 0.0141558, Final residual = 4.35732e-13, No Iterations 1000
smoothSolver:  Solving for p, Initial residual = 0.00825371, Final residual = 3.38121e-12, No Iterations 1000
diagonal:  Solving for rho, Initial residual = 0, Final residual = 0, No Iterations 0
time step continuity errors : sum local = 1.66139e-15, global = -8.22014e-16, cumulative = 5.09818e-15
ExecutionTime = 6.18 s  ClockTime = 6 s

Time = 0.002

Courant Number mean: 0.0491854 max: 0.411667
diagonal:  Solving for rho, Initial residual = 0, Final residual = 0, No Iterations 0
PIMPLE: iteration 1
smoothSolver:  Solving for Ux, Initial residual = 0.000363799, Final residual = 8.23225e-17, No Iterations 4
smoothSolver:  Solving for Uy, Initial residual = 0.000548817, Final residual = 4.83626e-17, No Iterations 4
smoothSolver:  Solving for e, Initial residual = 0.0246474, Final residual = 4.26224e-13, No Iterations 1000
smoothSolver:  Solving for p, Initial residual = 0.0897367, Final residual = 3.38961e-12, No Iterations 1000
diagonal:  Solving for rho, Initial residual = 0, Final residual = 0, No Iterations 0
time step continuity errors : sum local = 1.6482e-15, global = 8.46105e-16, cumulative = 5.94429e-15
PIMPLE: iteration 2
smoothSolver:  Solving for Ux, Initial residual = 1.76502e-05, Final residual = 2.15979e-16, No Iterations 3
smoothSolver:  Solving for Uy, Initial residual = 2.73462e-05, Final residual = 2.42733e-16, No Iterations 3
smoothSolver:  Solving for e, Initial residual = 0.00923413, Final residual = 4.46066e-13, No Iterations 1000
smoothSolver:  Solving for p, Initial residual = 0.00696827, Final residual = 3.55852e-12, No Iterations 1000
diagonal:  Solving for rho, Initial residual = 0, Final residual = 0, No Iterations 0
time step continuity errors : sum local = 1.60713e-15, global = -7.36551e-16, cumulative = 5.20774e-15
ExecutionTime = 7.05 s  ClockTime = 7 s

Time = 0.00225

Courant Number mean: 0.0492016 max: 0.411587
diagonal:  Solving for rho, Initial residual = 0, Final residual = 0, No Iterations 0
PIMPLE: iteration 1
smoothSolver:  Solving for Ux, Initial residual = 0.000301873, Final residual = 8.64751e-16, No Iterations 3
smoothSolver:  Solving for Uy, Initial residual = 0.000455595, Final residual = 4.04871e-17, No Iterations 4
smoothSolver:  Solving for e, Initial residual = 0.0253594, Final residual = 4.45319e-13, No Iterations 1000
smoothSolver:  Solving for p, Initial residual = 0.079885, Final residual = 3.52098e-12, No Iterations 1000
diagonal:  Solving for rho, Initial residual = 0, Final residual = 0, No Iterations 0
time step continuity errors : sum local = 1.56997e-15, global = 6.35451e-16, cumulative = 5.84319e-15
PIMPLE: iteration 2
smoothSolver:  Solving for Ux, Initial residual = 1.19243e-05, Final residual = 1.32679e-16, No Iterations 3
smoothSolver:  Solving for Uy, Initial residual = 1.85538e-05, Final residual = 1.27797e-16, No Iterations 3
smoothSolver:  Solving for e, Initial residual = 0.00890218, Final residual = 4.73711e-13, No Iterations 1000
smoothSolver:  Solving for p, Initial residual = 0.00621769, Final residual = 3.58403e-12, No Iterations 1000
diagonal:  Solving for rho, Initial residual = 0, Final residual = 0, No Iterations 0
time step continuity errors : sum local = 1.73235e-15, global = 8.85355e-16, cumulative = 6.72854e-15
ExecutionTime = 7.93 s  ClockTime = 8 s

Time = 0.0025

Courant Number mean: 0.0492117 max: 0.40995
diagonal:  Solving for rho, Initial residual = 0, Final residual = 0, No Iterations 0
PIMPLE: iteration 1
smoothSolver:  Solving for Ux, Initial residual = 0.000270398, Final residual = 6.37982e-16, No Iterations 3
smoothSolver:  Solving for Uy, Initial residual = 0.000410437, Final residual = 9.34469e-16, No Iterations 3
smoothSolver:  Solving for e, Initial residual = 0.0257251, Final residual = 4.72787e-13, No Iterations 1000
smoothSolver:  Solving for p, Initial residual = 0.0737154, Final residual = 3.57223e-12, No Iterations 1000
diagonal:  Solving for rho, Initial residual = 0, Final residual = 0, No Iterations 0
time step continuity errors : sum local = 1.70043e-15, global = 8.29641e-16, cumulative = 7.55818e-15
PIMPLE: iteration 2
smoothSolver:  Solving for Ux, Initial residual = 8.19007e-06, Final residual = 9.04306e-17, No Iterations 3
smoothSolver:  Solving for Uy, Initial residual = 1.30364e-05, Final residual = 5.84096e-17, No Iterations 3
smoothSolver:  Solving for e, Initial residual = 0.0086307, Final residual = 4.88189e-13, No Iterations 1000
smoothSolver:  Solving for p, Initial residual = 0.00520229, Final residual = 3.59509e-12, No Iterations 1000
diagonal:  Solving for rho, Initial residual = 0, Final residual = 0, No Iterations 0
time step continuity errors : sum local = 1.57869e-15, global = 6.35472e-16, cumulative = 8.19366e-15
ExecutionTime = 8.82 s  ClockTime = 9 s

Time = 0.00275

Courant Number mean: 0.0492169 max: 0.409617
diagonal:  Solving for rho, Initial residual = 0, Final residual = 0, No Iterations 0
PIMPLE: iteration 1
smoothSolver:  Solving for Ux, Initial residual = 0.000266128, Final residual = 4.55202e-16, No Iterations 3
smoothSolver:  Solving for Uy, Initial residual = 0.000405662, Final residual = 6.28949e-16, No Iterations 3
smoothSolver:  Solving for e, Initial residual = 0.026211, Final residual = 4.78993e-13, No Iterations 1000
smoothSolver:  Solving for p, Initial residual = 0.0712417, Final residual = 3.57308e-12, No Iterations 1000
diagonal:  Solving for rho, Initial residual = 0, Final residual = 0, No Iterations 0
time step continuity errors : sum local = 1.64955e-15, global = 7.22063e-16, cumulative = 8.91572e-15
PIMPLE: iteration 2
smoothSolver:  Solving for Ux, Initial residual = 5.97558e-06, Final residual = 9.32328e-17, No Iterations 3
smoothSolver:  Solving for Uy, Initial residual = 9.64474e-06, Final residual = 5.89672e-17, No Iterations 3
smoothSolver:  Solving for e, Initial residual = 0.00794258, Final residual = 5.09222e-13, No Iterations 1000
smoothSolver:  Solving for p, Initial residual = 0.00418579, Final residual = 3.6293e-12, No Iterations 1000
diagonal:  Solving for rho, Initial residual = 0, Final residual = 0, No Iterations 0
time step continuity errors : sum local = 1.58686e-15, global = 6.03149e-16, cumulative = 9.51887e-15
ExecutionTime = 9.69 s  ClockTime = 10 s

Time = 0.003

Courant Number mean: 0.0492184 max: 0.409777
diagonal:  Solving for rho, Initial residual = 0, Final residual = 0, No Iterations 0
PIMPLE: iteration 1
smoothSolver:  Solving for Ux, Initial residual = 0.000267517, Final residual = 3.41747e-16, No Iterations 3
smoothSolver:  Solving for Uy, Initial residual = 0.000410182, Final residual = 4.46534e-16, No Iterations 3
smoothSolver:  Solving for e, Initial residual = 0.026494, Final residual = 5.03515e-13, No Iterations 1000
smoothSolver:  Solving for p, Initial residual = 0.0691329, Final residual = 3.68996e-12, No Iterations 1000
diagonal:  Solving for rho, Initial residual = 0, Final residual = 0, No Iterations 0
time step continuity errors : sum local = 1.63706e-15, global = 7.26483e-16, cumulative = 1.02454e-14
PIMPLE: iteration 2
smoothSolver:  Solving for Ux, Initial residual = 4.81913e-06, Final residual = 9.60495e-17, No Iterations 3
smoothSolver:  Solving for Uy, Initial residual = 7.77754e-06, Final residual = 5.0713e-17, No Iterations 3
smoothSolver:  Solving for e, Initial residual = 0.00750798, Final residual = 5.26693e-13, No Iterations 1000
smoothSolver:  Solving for p, Initial residual = 0.00379316, Final residual = 3.61731e-12, No Iterations 1000
diagonal:  Solving for rho, Initial residual = 0, Final residual = 0, No Iterations 0
time step continuity errors : sum local = 1.6267e-15, global = 6.02516e-16, cumulative = 1.08479e-14
ExecutionTime = 10.56 s  ClockTime = 11 s

Time = 0.00325

Courant Number mean: 0.0492177 max: 0.409722
diagonal:  Solving for rho, Initial residual = 0, Final residual = 0, No Iterations 0
PIMPLE: iteration 1
smoothSolver:  Solving for Ux, Initial residual = 0.000269689, Final residual = 2.72668e-16, No Iterations 3
smoothSolver:  Solving for Uy, Initial residual = 0.00041453, Final residual = 3.35866e-16, No Iterations 3
smoothSolver:  Solving for e, Initial residual = 0.0268041, Final residual = 5.29157e-13, No Iterations 1000
smoothSolver:  Solving for p, Initial residual = 0.0655086, Final residual = 3.54221e-12, No Iterations 1000
diagonal:  Solving for rho, Initial residual = 0, Final residual = 0, No Iterations 0
time step continuity errors : sum local = 1.66619e-15, global = 7.95651e-16, cumulative = 1.16435e-14
PIMPLE: iteration 2
smoothSolver:  Solving for Ux, Initial residual = 4.11794e-06, Final residual = 8.67243e-17, No Iterations 3
smoothSolver:  Solving for Uy, Initial residual = 6.6681e-06, Final residual = 4.79168e-17, No Iterations 3
smoothSolver:  Solving for e, Initial residual = 0.00721767, Final residual = 5.30938e-13, No Iterations 1000
smoothSolver:  Solving for p, Initial residual = 0.00350867, Final residual = 3.55938e-12, No Iterations 1000
diagonal:  Solving for rho, Initial residual = 0, Final residual = 0, No Iterations 0
time step continuity errors : sum local = 1.66895e-15, global = 7.3825e-16, cumulative = 1.23818e-14
ExecutionTime = 11.44 s  ClockTime = 12 s

Time = 0.0035

Courant Number mean: 0.0492161 max: 0.409448
diagonal:  Solving for rho, Initial residual = 0, Final residual = 0, No Iterations 0
PIMPLE: iteration 1
smoothSolver:  Solving for Ux, Initial residual = 0.000272111, Final residual = 2.15693e-16, No Iterations 3
smoothSolver:  Solving for Uy, Initial residual = 0.000416692, Final residual = 2.48149e-16, No Iterations 3
smoothSolver:  Solving for e, Initial residual = 0.0270091, Final residual = 5.37807e-13, No Iterations 1000
smoothSolver:  Solving for p, Initial residual = 0.0627022, Final residual = 3.57729e-12, No Iterations 1000
diagonal:  Solving for rho, Initial residual = 0, Final residual = 0, No Iterations 0
time step continuity errors : sum local = 1.62226e-15, global = 6.71653e-16, cumulative = 1.30534e-14
PIMPLE: iteration 2
smoothSolver:  Solving for Ux, Initial residual = 3.30931e-06, Final residual = 8.79617e-17, No Iterations 3
smoothSolver:  Solving for Uy, Initial residual = 5.38899e-06, Final residual = 4.64103e-17, No Iterations 3
smoothSolver:  Solving for e, Initial residual = 0.00706767, Final residual = 5.64187e-13, No Iterations 1000
smoothSolver:  Solving for p, Initial residual = 0.00329541, Final residual = 3.48447e-12, No Iterations 1000
diagonal:  Solving for rho, Initial residual = 0, Final residual = 0, No Iterations 0
time step continuity errors : sum local = 1.56082e-15, global = 5.30742e-16, cumulative = 1.35842e-14
ExecutionTime = 12.31 s  ClockTime = 13 s

Time = 0.00375

Courant Number mean: 0.0492139 max: 0.409111
diagonal:  Solving for rho, Initial residual = 0, Final residual = 0, No Iterations 0
PIMPLE: iteration 1
smoothSolver:  Solving for Ux, Initial residual = 0.000272894, Final residual = 1.81879e-16, No Iterations 3
smoothSolver:  Solving for Uy, Initial residual = 0.000416268, Final residual = 1.87857e-16, No Iterations 3
smoothSolver:  Solving for e, Initial residual = 0.0273255, Final residual = 5.67859e-13, No Iterations 1000
smoothSolver:  Solving for p, Initial residual = 0.0612509, Final residual = 3.60502e-12, No Iterations 1000
diagonal:  Solving for rho, Initial residual = 0, Final residual = 0, No Iterations 0
time step continuity errors : sum local = 1.65569e-15, global = 7.53716e-16, cumulative = 1.43379e-14
PIMPLE: iteration 2
smoothSolver:  Solving for Ux, Initial residual = 2.82677e-06, Final residual = 8.80514e-17, No Iterations 3
smoothSolver:  Solving for Uy, Initial residual = 4.67735e-06, Final residual = 4.43274e-17, No Iterations 3
smoothSolver:  Solving for e, Initial residual = 0.00685542, Final residual = 5.88555e-13, No Iterations 1000
smoothSolver:  Solving for p, Initial residual = 0.00307516, Final residual = 3.53958e-12, No Iterations 1000
diagonal:  Solving for rho, Initial residual = 0, Final residual = 0, No Iterations 0
time step continuity errors : sum local = 1.54247e-15, global = 4.71874e-16, cumulative = 1.48098e-14
ExecutionTime = 13.18 s  ClockTime = 14 s

Time = 0.004

Courant Number mean: 0.0492115 max: 0.408873
diagonal:  Solving for rho, Initial residual = 0, Final residual = 0, No Iterations 0
PIMPLE: iteration 1
smoothSolver:  Solving for Ux, Initial residual = 0.000271825, Final residual = 1.55662e-16, No Iterations 3
smoothSolver:  Solving for Uy, Initial residual = 0.000414226, Final residual = 1.5692e-16, No Iterations 3
smoothSolver:  Solving for e, Initial residual = 0.0280014, Final residual = 5.79259e-13, No Iterations 1000
smoothSolver:  Solving for p, Initial residual = 0.0601786, Final residual = 3.62326e-12, No Iterations 1000
diagonal:  Solving for rho, Initial residual = 0, Final residual = 0, No Iterations 0
time step continuity errors : sum local = 1.66565e-15, global = 7.72508e-16, cumulative = 1.55823e-14
PIMPLE: iteration 2
smoothSolver:  Solving for Ux, Initial residual = 2.63217e-06, Final residual = 8.43855e-17, No Iterations 3
smoothSolver:  Solving for Uy, Initial residual = 4.39376e-06, Final residual = 4.66357e-17, No Iterations 3
smoothSolver:  Solving for e, Initial residual = 0.00660479, Final residual = 5.92793e-13, No Iterations 1000
smoothSolver:  Solving for p, Initial residual = 0.00288226, Final residual = 3.43116e-12, No Iterations 1000
diagonal:  Solving for rho, Initial residual = 0, Final residual = 0, No Iterations 0
time step continuity errors : sum local = 1.496e-15, global = 4.47402e-16, cumulative = 1.60297e-14
ExecutionTime = 14.05 s  ClockTime = 14 s

Time = 0.00425

Courant Number mean: 0.0492091 max: 0.408569
diagonal:  Solving for rho, Initial residual = 0, Final residual = 0, No Iterations 0
PIMPLE: iteration 1
smoothSolver:  Solving for Ux, Initial residual = 0.000270242, Final residual = 1.41842e-16, No Iterations 3
smoothSolver:  Solving for Uy, Initial residual = 0.000411965, Final residual = 1.28958e-16, No Iterations 3
smoothSolver:  Solving for e, Initial residual = 0.02846, Final residual = 6.11283e-13, No Iterations 1000
smoothSolver:  Solving for p, Initial residual = 0.0585784, Final residual = 3.63744e-12, No Iterations 1000
diagonal:  Solving for rho, Initial residual = 0, Final residual = 0, No Iterations 0
time step continuity errors : sum local = 1.676e-15, global = 7.91489e-16, cumulative = 1.68212e-14
PIMPLE: iteration 2
smoothSolver:  Solving for Ux, Initial residual = 2.46783e-06, Final residual = 8.72357e-17, No Iterations 3
smoothSolver:  Solving for Uy, Initial residual = 4.08815e-06, Final residual = 4.47808e-17, No Iterations 3
smoothSolver:  Solving for e, Initial residual = 0.00647239, Final residual = 5.9912e-13, No Iterations 1000
smoothSolver:  Solving for p, Initial residual = 0.00271328, Final residual = 3.49259e-12, No Iterations 1000
diagonal:  Solving for rho, Initial residual = 0, Final residual = 0, No Iterations 0
time step continuity errors : sum local = 1.5066e-15, global = 3.00254e-16, cumulative = 1.71214e-14
ExecutionTime = 14.91 s  ClockTime = 15 s

Time = 0.0045

Courant Number mean: 0.0492066 max: 0.40825
diagonal:  Solving for rho, Initial residual = 0, Final residual = 0, No Iterations 0
PIMPLE: iteration 1
smoothSolver:  Solving for Ux, Initial residual = 0.000266112, Final residual = 1.35559e-16, No Iterations 3
smoothSolver:  Solving for Uy, Initial residual = 0.00040598, Final residual = 1.20985e-16, No Iterations 3
smoothSolver:  Solving for e, Initial residual = 0.0285998, Final residual = 6.18867e-13, No Iterations 1000
smoothSolver:  Solving for p, Initial residual = 0.0573027, Final residual = 3.64529e-12, No Iterations 1000
diagonal:  Solving for rho, Initial residual = 0, Final residual = 0, No Iterations 0
time step continuity errors : sum local = 1.58826e-15, global = 6.32499e-16, cumulative = 1.77539e-14
PIMPLE: iteration 2
smoothSolver:  Solving for Ux, Initial residual = 2.27862e-06, Final residual = 8.25831e-17, No Iterations 3
smoothSolver:  Solving for Uy, Initial residual = 3.82503e-06, Final residual = 4.21602e-17, No Iterations 3
smoothSolver:  Solving for e, Initial residual = 0.00633577, Final residual = 6.216e-13, No Iterations 1000
smoothSolver:  Solving for p, Initial residual = 0.0025802, Final residual = 3.52994e-12, No Iterations 1000
diagonal:  Solving for rho, Initial residual = 0, Final residual = 0, No Iterations 0
time step continuity errors : sum local = 1.4244e-15, global = 2.60224e-16, cumulative = 1.80141e-14
ExecutionTime = 15.79 s  ClockTime = 16 s

Time = 0.00475

Courant Number mean: 0.0492042 max: 0.407828
diagonal:  Solving for rho, Initial residual = 0, Final residual = 0, No Iterations 0
PIMPLE: iteration 1
smoothSolver:  Solving for Ux, Initial residual = 0.000261983, Final residual = 1.33263e-16, No Iterations 3
smoothSolver:  Solving for Uy, Initial residual = 0.000400155, Final residual = 1.14807e-16, No Iterations 3
smoothSolver:  Solving for e, Initial residual = 0.0287804, Final residual = 6.1353e-13, No Iterations 1000
smoothSolver:  Solving for p, Initial residual = 0.0561354, Final residual = 3.71585e-12, No Iterations 1000
diagonal:  Solving for rho, Initial residual = 0, Final residual = 0, No Iterations 0
time step continuity errors : sum local = 1.60228e-15, global = 6.7551e-16, cumulative = 1.86896e-14
PIMPLE: iteration 2
smoothSolver:  Solving for Ux, Initial residual = 2.23654e-06, Final residual = 8.57955e-17, No Iterations 3
smoothSolver:  Solving for Uy, Initial residual = 3.67876e-06, Final residual = 4.44687e-17, No Iterations 3
smoothSolver:  Solving for e, Initial residual = 0.00618254, Final residual = 6.31164e-13, No Iterations 1000
smoothSolver:  Solving for p, Initial residual = 0.00245874, Final residual = 3.44549e-12, No Iterations 1000
diagonal:  Solving for rho, Initial residual = 0, Final residual = 0, No Iterations 0
time step continuity errors : sum local = 1.47051e-15, global = 3.1715e-16, cumulative = 1.90068e-14
ExecutionTime = 16.67 s  ClockTime = 17 s

Time = 0.005

Courant Number mean: 0.0492017 max: 0.40726
diagonal:  Solving for rho, Initial residual = 0, Final residual = 0, No Iterations 0
PIMPLE: iteration 1
smoothSolver:  Solving for Ux, Initial residual = 0.000258318, Final residual = 1.29881e-16, No Iterations 3
smoothSolver:  Solving for Uy, Initial residual = 0.00039466, Final residual = 1.07706e-16, No Iterations 3
smoothSolver:  Solving for e, Initial residual = 0.0289989, Final residual = 6.21915e-13, No Iterations 1000
smoothSolver:  Solving for p, Initial residual = 0.0546939, Final residual = 3.70951e-12, No Iterations 1000
diagonal:  Solving for rho, Initial residual = 0, Final residual = 0, No Iterations 0
time step continuity errors : sum local = 1.65901e-15, global = 6.35981e-16, cumulative = 1.96428e-14
PIMPLE: iteration 2
smoothSolver:  Solving for Ux, Initial residual = 2.15292e-06, Final residual = 8.68602e-17, No Iterations 3
smoothSolver:  Solving for Uy, Initial residual = 3.57458e-06, Final residual = 4.14321e-17, No Iterations 3
smoothSolver:  Solving for e, Initial residual = 0.00606046, Final residual = 6.43252e-13, No Iterations 1000
smoothSolver:  Solving for p, Initial residual = 0.00236636, Final residual = 3.53088e-12, No Iterations 1000
diagonal:  Solving for rho, Initial residual = 0, Final residual = 0, No Iterations 0
time step continuity errors : sum local = 1.4648e-15, global = 2.62174e-16, cumulative = 1.99049e-14
ExecutionTime = 17.54 s  ClockTime = 18 s

Time = 0.00525

Courant Number mean: 0.0491993 max: 0.406533
diagonal:  Solving for rho, Initial residual = 0, Final residual = 0, No Iterations 0
PIMPLE: iteration 1
smoothSolver:  Solving for Ux, Initial residual = 0.000254538, Final residual = 1.27179e-16, No Iterations 3
smoothSolver:  Solving for Uy, Initial residual = 0.00038883, Final residual = 1.0211e-16, No Iterations 3
smoothSolver:  Solving for e, Initial residual = 0.0290148, Final residual = 6.5309e-13, No Iterations 1000
smoothSolver:  Solving for p, Initial residual = 0.0536262, Final residual = 3.64327e-12, No Iterations 1000
diagonal:  Solving for rho, Initial residual = 0, Final residual = 0, No Iterations 0
time step continuity errors : sum local = 1.62123e-15, global = 7.12568e-16, cumulative = 2.06175e-14
PIMPLE: iteration 2
smoothSolver:  Solving for Ux, Initial residual = 2.0873e-06, Final residual = 8.53257e-17, No Iterations 3
smoothSolver:  Solving for Uy, Initial residual = 3.45252e-06, Final residual = 4.11524e-17, No Iterations 3
smoothSolver:  Solving for e, Initial residual = 0.0059763, Final residual = 6.75418e-13, No Iterations 1000
smoothSolver:  Solving for p, Initial residual = 0.00227606, Final residual = 3.42925e-12, No Iterations 1000
diagonal:  Solving for rho, Initial residual = 0, Final residual = 0, No Iterations 0
time step continuity errors : sum local = 1.50382e-15, global = 3.43439e-16, cumulative = 2.0961e-14
ExecutionTime = 18.41 s  ClockTime = 19 s

Time = 0.0055

Courant Number mean: 0.0491969 max: 0.405641
diagonal:  Solving for rho, Initial residual = 0, Final residual = 0, No Iterations 0
PIMPLE: iteration 1
smoothSolver:  Solving for Ux, Initial residual = 0.000251316, Final residual = 1.22243e-16, No Iterations 3
smoothSolver:  Solving for Uy, Initial residual = 0.000383023, Final residual = 1.0094e-16, No Iterations 3
smoothSolver:  Solving for e, Initial residual = 0.0290206, Final residual = 6.67121e-13, No Iterations 1000
smoothSolver:  Solving for p, Initial residual = 0.0522971, Final residual = 3.68711e-12, No Iterations 1000
diagonal:  Solving for rho, Initial residual = 0, Final residual = 0, No Iterations 0
time step continuity errors : sum local = 1.65761e-15, global = 6.67018e-16, cumulative = 2.1628e-14
PIMPLE: iteration 2
smoothSolver:  Solving for Ux, Initial residual = 1.97033e-06, Final residual = 8.6236e-17, No Iterations 3
smoothSolver:  Solving for Uy, Initial residual = 3.29432e-06, Final residual = 4.13605e-17, No Iterations 3
smoothSolver:  Solving for e, Initial residual = 0.00581652, Final residual = 6.57886e-13, No Iterations 1000
smoothSolver:  Solving for p, Initial residual = 0.00219079, Final residual = 3.47234e-12, No Iterations 1000
diagonal:  Solving for rho, Initial residual = 0, Final residual = 0, No Iterations 0
time step continuity errors : sum local = 1.4848e-15, global = 2.76664e-16, cumulative = 2.19046e-14
ExecutionTime = 19.29 s  ClockTime = 20 s

Time = 0.00575

Courant Number mean: 0.0491945 max: 0.404755
diagonal:  Solving for rho, Initial residual = 0, Final residual = 0, No Iterations 0
PIMPLE: iteration 1
smoothSolver:  Solving for Ux, Initial residual = 0.000247638, Final residual = 1.21776e-16, No Iterations 3
smoothSolver:  Solving for Uy, Initial residual = 0.000377613, Final residual = 9.70385e-17, No Iterations 3
smoothSolver:  Solving for e, Initial residual = 0.0288179, Final residual = 6.68478e-13, No Iterations 1000
smoothSolver:  Solving for p, Initial residual = 0.0512576, Final residual = 3.6066e-12, No Iterations 1000
diagonal:  Solving for rho, Initial residual = 0, Final residual = 0, No Iterations 0
time step continuity errors : sum local = 1.68256e-15, global = 8.01274e-16, cumulative = 2.27059e-14
PIMPLE: iteration 2
smoothSolver:  Solving for Ux, Initial residual = 1.96732e-06, Final residual = 8.45518e-17, No Iterations 3
smoothSolver:  Solving for Uy, Initial residual = 3.2261e-06, Final residual = 4.18349e-17, No Iterations 3
smoothSolver:  Solving for e, Initial residual = 0.00566354, Final residual = 6.89021e-13, No Iterations 1000
smoothSolver:  Solving for p, Initial residual = 0.00211137, Final residual = 3.3906e-12, No Iterations 1000
diagonal:  Solving for rho, Initial residual = 0, Final residual = 0, No Iterations 0
time step continuity errors : sum local = 1.52334e-15, global = 3.75429e-16, cumulative = 2.30813e-14
ExecutionTime = 20.16 s  ClockTime = 21 s

Time = 0.006

Courant Number mean: 0.0491921 max: 0.403862
diagonal:  Solving for rho, Initial residual = 0, Final residual = 0, No Iterations 0
PIMPLE: iteration 1
smoothSolver:  Solving for Ux, Initial residual = 0.000244558, Final residual = 1.16358e-16, No Iterations 3
smoothSolver:  Solving for Uy, Initial residual = 0.00037245, Final residual = 9.0699e-17, No Iterations 3
smoothSolver:  Solving for e, Initial residual = 0.0285883, Final residual = 6.8641e-13, No Iterations 1000
smoothSolver:  Solving for p, Initial residual = 0.0500416, Final residual = 3.55991e-12, No Iterations 1000
diagonal:  Solving for rho, Initial residual = 0, Final residual = 0, No Iterations 0
time step continuity errors : sum local = 1.63447e-15, global = 7.15503e-16, cumulative = 2.37968e-14
PIMPLE: iteration 2
smoothSolver:  Solving for Ux, Initial residual = 1.84584e-06, Final residual = 8.55033e-17, No Iterations 3
smoothSolver:  Solving for Uy, Initial residual = 3.05702e-06, Final residual = 4.29463e-17, No Iterations 3
smoothSolver:  Solving for e, Initial residual = 0.00546365, Final residual = 6.83861e-13, No Iterations 1000
smoothSolver:  Solving for p, Initial residual = 0.00202077, Final residual = 3.36371e-12, No Iterations 1000
diagonal:  Solving for rho, Initial residual = 0, Final residual = 0, No Iterations 0
time step continuity errors : sum local = 1.45836e-15, global = 3.26823e-16, cumulative = 2.41237e-14
ExecutionTime = 21.03 s  ClockTime = 22 s

Time = 0.00625

Courant Number mean: 0.0491895 max: 0.402851
diagonal:  Solving for rho, Initial residual = 0, Final residual = 0, No Iterations 0
PIMPLE: iteration 1
smoothSolver:  Solving for Ux, Initial residual = 0.000240879, Final residual = 1.17173e-16, No Iterations 3
smoothSolver:  Solving for Uy, Initial residual = 0.000367787, Final residual = 9.01409e-17, No Iterations 3
smoothSolver:  Solving for e, Initial residual = 0.0282535, Final residual = 6.75814e-13, No Iterations 1000
smoothSolver:  Solving for p, Initial residual = 0.0488668, Final residual = 3.59684e-12, No Iterations 1000
diagonal:  Solving for rho, Initial residual = 0, Final residual = 0, No Iterations 0
time step continuity errors : sum local = 1.63681e-15, global = 6.60919e-16, cumulative = 2.47846e-14
PIMPLE: iteration 2
smoothSolver:  Solving for Ux, Initial residual = 1.80626e-06, Final residual = 8.82716e-17, No Iterations 3
smoothSolver:  Solving for Uy, Initial residual = 2.99794e-06, Final residual = 4.17524e-17, No Iterations 3
smoothSolver:  Solving for e, Initial residual = 0.00525884, Final residual = 6.73211e-13, No Iterations 1000
smoothSolver:  Solving for p, Initial residual = 0.00194222, Final residual = 3.3055e-12, No Iterations 1000
diagonal:  Solving for rho, Initial residual = 0, Final residual = 0, No Iterations 0
time step continuity errors : sum local = 1.47412e-15, global = 3.40495e-16, cumulative = 2.51251e-14
ExecutionTime = 21.9 s  ClockTime = 22 s

Time = 0.0065

Courant Number mean: 0.049187 max: 0.401703
diagonal:  Solving for rho, Initial residual = 0, Final residual = 0, No Iterations 0
PIMPLE: iteration 1
smoothSolver:  Solving for Ux, Initial residual = 0.000238426, Final residual = 1.18896e-16, No Iterations 3
smoothSolver:  Solving for Uy, Initial residual = 0.000363277, Final residual = 8.51982e-17, No Iterations 3
smoothSolver:  Solving for e, Initial residual = 0.0278461, Final residual = 6.62564e-13, No Iterations 1000
smoothSolver:  Solving for p, Initial residual = 0.047719, Final residual = 3.41267e-12, No Iterations 1000
diagonal:  Solving for rho, Initial residual = 0, Final residual = 0, No Iterations 0
time step continuity errors : sum local = 1.67942e-15, global = 7.9093e-16, cumulative = 2.5916e-14
PIMPLE: iteration 2
smoothSolver:  Solving for Ux, Initial residual = 1.70114e-06, Final residual = 8.74061e-17, No Iterations 3
smoothSolver:  Solving for Uy, Initial residual = 2.84527e-06, Final residual = 4.31882e-17, No Iterations 3
smoothSolver:  Solving for e, Initial residual = 0.00508592, Final residual = 6.84295e-13, No Iterations 1000
smoothSolver:  Solving for p, Initial residual = 0.00186205, Final residual = 3.30825e-12, No Iterations 1000
diagonal:  Solving for rho, Initial residual = 0, Final residual = 0, No Iterations 0
time step continuity errors : sum local = 1.5268e-15, global = 4.13135e-16, cumulative = 2.63291e-14
ExecutionTime = 22.77 s  ClockTime = 23 s

Time = 0.00675

Courant Number mean: 0.0491844 max: 0.40049
diagonal:  Solving for rho, Initial residual = 0, Final residual = 0, No Iterations 0
PIMPLE: iteration 1
smoothSolver:  Solving for Ux, Initial residual = 0.000236025, Final residual = 1.14333e-16, No Iterations 3
smoothSolver:  Solving for Uy, Initial residual = 0.000359356, Final residual = 8.51248e-17, No Iterations 3
smoothSolver:  Solving for e, Initial residual = 0.0273677, Final residual = 6.48623e-13, No Iterations 1000
smoothSolver:  Solving for p, Initial residual = 0.0465449, Final residual = 3.41623e-12, No Iterations 1000
diagonal:  Solving for rho, Initial residual = 0, Final residual = 0, No Iterations 0
time step continuity errors : sum local = 1.66346e-15, global = 6.98904e-16, cumulative = 2.7028e-14
PIMPLE: iteration 2
smoothSolver:  Solving for Ux, Initial residual = 1.7084e-06, Final residual = 8.74366e-17, No Iterations 3
smoothSolver:  Solving for Uy, Initial residual = 2.80037e-06, Final residual = 4.42254e-17, No Iterations 3
smoothSolver:  Solving for e, Initial residual = 0.00489658, Final residual = 6.66472e-13, No Iterations 1000
smoothSolver:  Solving for p, Initial residual = 0.00179095, Final residual = 3.25107e-12, No Iterations 1000
diagonal:  Solving for rho, Initial residual = 0, Final residual = 0, No Iterations 0
time step continuity errors : sum local = 1.50578e-15, global = 3.58556e-16, cumulative = 2.73866e-14
ExecutionTime = 23.65 s  ClockTime = 24 s

Time = 0.007

Courant Number mean: 0.0491818 max: 0.399161
diagonal:  Solving for rho, Initial residual = 0, Final residual = 0, No Iterations 0
PIMPLE: iteration 1
smoothSolver:  Solving for Ux, Initial residual = 0.000233115, Final residual = 1.128e-16, No Iterations 3
smoothSolver:  Solving for Uy, Initial residual = 0.000355131, Final residual = 8.1898e-17, No Iterations 3
smoothSolver:  Solving for e, Initial residual = 0.0267674, Final residual = 6.6395e-13, No Iterations 1000
smoothSolver:  Solving for p, Initial residual = 0.0454543, Final residual = 3.50058e-12, No Iterations 1000
diagonal:  Solving for rho, Initial residual = 0, Final residual = 0, No Iterations 0
time step continuity errors : sum local = 1.69081e-15, global = 7.45172e-16, cumulative = 2.81318e-14
PIMPLE: iteration 2
smoothSolver:  Solving for Ux, Initial residual = 1.63758e-06, Final residual = 8.63353e-17, No Iterations 3
smoothSolver:  Solving for Uy, Initial residual = 2.69552e-06, Final residual = 4.28009e-17, No Iterations 3
smoothSolver:  Solving for e, Initial residual = 0.00475878, Final residual = 6.58038e-13, No Iterations 1000
smoothSolver:  Solving for p, Initial residual = 0.00173063, Final residual = 3.26808e-12, No Iterations 1000
diagonal:  Solving for rho, Initial residual = 0, Final residual = 0, No Iterations 0
time step continuity errors : sum local = 1.54732e-15, global = 4.85066e-16, cumulative = 2.86168e-14
ExecutionTime = 24.52 s  ClockTime = 25 s

Time = 0.00725

Courant Number mean: 0.0491791 max: 0.397717
diagonal:  Solving for rho, Initial residual = 0, Final residual = 0, No Iterations 0
PIMPLE: iteration 1
smoothSolver:  Solving for Ux, Initial residual = 0.000231014, Final residual = 1.13198e-16, No Iterations 3
smoothSolver:  Solving for Uy, Initial residual = 0.000351813, Final residual = 7.87195e-17, No Iterations 3
smoothSolver:  Solving for e, Initial residual = 0.0261952, Final residual = 6.36383e-13, No Iterations 1000
smoothSolver:  Solving for p, Initial residual = 0.0443026, Final residual = 3.40332e-12, No Iterations 1000
diagonal:  Solving for rho, Initial residual = 0, Final residual = 0, No Iterations 0
time step continuity errors : sum local = 1.63767e-15, global = 7.20437e-16, cumulative = 2.93373e-14
PIMPLE: iteration 2
smoothSolver:  Solving for Ux, Initial residual = 1.59592e-06, Final residual = 8.41122e-17, No Iterations 3
smoothSolver:  Solving for Uy, Initial residual = 2.63254e-06, Final residual = 4.41484e-17, No Iterations 3
smoothSolver:  Solving for e, Initial residual = 0.0045797, Final residual = 6.671e-13, No Iterations 1000
smoothSolver:  Solving for p, Initial residual = 0.00166552, Final residual = 3.21194e-12, No Iterations 1000
diagonal:  Solving for rho, Initial residual = 0, Final residual = 0, No Iterations 0
time step continuity errors : sum local = 1.48946e-15, global = 3.30985e-16, cumulative = 2.96683e-14
ExecutionTime = 25.4 s  ClockTime = 26 s

Time = 0.0075

Courant Number mean: 0.0491763 max: 0.396136
diagonal:  Solving for rho, Initial residual = 0, Final residual = 0, No Iterations 0
PIMPLE: iteration 1
smoothSolver:  Solving for Ux, Initial residual = 0.000228868, Final residual = 1.03971e-16, No Iterations 3
smoothSolver:  Solving for Uy, Initial residual = 0.000348193, Final residual = 7.55347e-17, No Iterations 3
smoothSolver:  Solving for e, Initial residual = 0.0255789, Final residual = 6.63213e-13, No Iterations 1000
smoothSolver:  Solving for p, Initial residual = 0.0431613, Final residual = 3.34177e-12, No Iterations 1000
diagonal:  Solving for rho, Initial residual = 0, Final residual = 0, No Iterations 0
time step continuity errors : sum local = 1.64926e-15, global = 6.1149e-16, cumulative = 3.02798e-14
PIMPLE: iteration 2
smoothSolver:  Solving for Ux, Initial residual = 1.52439e-06, Final residual = 8.98917e-17, No Iterations 3
smoothSolver:  Solving for Uy, Initial residual = 2.5494e-06, Final residual = 4.18491e-17, No Iterations 3
smoothSolver:  Solving for e, Initial residual = 0.00437389, Final residual = 6.17828e-13, No Iterations 1000
smoothSolver:  Solving for p, Initial residual = 0.00158704, Final residual = 3.19539e-12, No Iterations 1000
diagonal:  Solving for rho, Initial residual = 0, Final residual = 0, No Iterations 0
time step continuity errors : sum local = 1.49134e-15, global = 2.96233e-16, cumulative = 3.0576e-14
ExecutionTime = 26.27 s  ClockTime = 27 s

Time = 0.00775

Courant Number mean: 0.0491734 max: 0.394503
diagonal:  Solving for rho, Initial residual = 0, Final residual = 0, No Iterations 0
PIMPLE: iteration 1
smoothSolver:  Solving for Ux, Initial residual = 0.0002269, Final residual = 1.05131e-16, No Iterations 3
smoothSolver:  Solving for Uy, Initial residual = 0.000344798, Final residual = 7.41722e-17, No Iterations 3
smoothSolver:  Solving for e, Initial residual = 0.0249756, Final residual = 6.34521e-13, No Iterations 1000
smoothSolver:  Solving for p, Initial residual = 0.0420953, Final residual = 3.32423e-12, No Iterations 1000
diagonal:  Solving for rho, Initial residual = 0, Final residual = 0, No Iterations 0
time step continuity errors : sum local = 1.66607e-15, global = 6.24758e-16, cumulative = 3.12007e-14
PIMPLE: iteration 2
smoothSolver:  Solving for Ux, Initial residual = 1.49809e-06, Final residual = 8.60816e-17, No Iterations 3
smoothSolver:  Solving for Uy, Initial residual = 2.47486e-06, Final residual = 4.33275e-17, No Iterations 3
smoothSolver:  Solving for e, Initial residual = 0.00417628, Final residual = 6.45791e-13, No Iterations 1000
smoothSolver:  Solving for p, Initial residual = 0.00152805, Final residual = 3.13286e-12, No Iterations 1000
diagonal:  Solving for rho, Initial residual = 0, Final residual = 0, No Iterations 0
time step continuity errors : sum local = 1.53716e-15, global = 3.44539e-16, cumulative = 3.15453e-14
ExecutionTime = 27.15 s  ClockTime = 28 s

Time = 0.008

Courant Number mean: 0.0491706 max: 0.392805
diagonal:  Solving for rho, Initial residual = 0, Final residual = 0, No Iterations 0
PIMPLE: iteration 1
smoothSolver:  Solving for Ux, Initial residual = 0.000225217, Final residual = 1.01334e-16, No Iterations 3
smoothSolver:  Solving for Uy, Initial residual = 0.000341785, Final residual = 7.15841e-17, No Iterations 3
smoothSolver:  Solving for e, Initial residual = 0.024407, Final residual = 6.20131e-13, No Iterations 1000
smoothSolver:  Solving for p, Initial residual = 0.0410127, Final residual = 3.27153e-12, No Iterations 1000
diagonal:  Solving for rho, Initial residual = 0, Final residual = 0, No Iterations 0
time step continuity errors : sum local = 1.64491e-15, global = 7.02893e-16, cumulative = 3.22482e-14
PIMPLE: iteration 2
smoothSolver:  Solving for Ux, Initial residual = 1.45925e-06, Final residual = 8.71554e-17, No Iterations 3
smoothSolver:  Solving for Uy, Initial residual = 2.42538e-06, Final residual = 4.23202e-17, No Iterations 3
smoothSolver:  Solving for e, Initial residual = 0.00399685, Final residual = 6.13813e-13, No Iterations 1000
smoothSolver:  Solving for p, Initial residual = 0.00146671, Final residual = 3.10233e-12, No Iterations 1000
diagonal:  Solving for rho, Initial residual = 0, Final residual = 0, No Iterations 0
time step continuity errors : sum local = 1.47786e-15, global = 3.5593e-16, cumulative = 3.26041e-14
ExecutionTime = 28.02 s  ClockTime = 29 s

Time = 0.00825

Courant Number mean: 0.0491676 max: 0.391048
diagonal:  Solving for rho, Initial residual = 0, Final residual = 0, No Iterations 0
PIMPLE: iteration 1
smoothSolver:  Solving for Ux, Initial residual = 0.000223369, Final residual = 9.7869e-17, No Iterations 3
smoothSolver:  Solving for Uy, Initial residual = 0.00033922, Final residual = 6.98714e-17, No Iterations 3
smoothSolver:  Solving for e, Initial residual = 0.0238228, Final residual = 6.32066e-13, No Iterations 1000
smoothSolver:  Solving for p, Initial residual = 0.0400065, Final residual = 3.27823e-12, No Iterations 1000
diagonal:  Solving for rho, Initial residual = 0, Final residual = 0, No Iterations 0
time step continuity errors : sum local = 1.64701e-15, global = 5.97922e-16, cumulative = 3.3202e-14
PIMPLE: iteration 2
smoothSolver:  Solving for Ux, Initial residual = 1.45995e-06, Final residual = 8.35203e-17, No Iterations 3
smoothSolver:  Solving for Uy, Initial residual = 2.38506e-06, Final residual = 4.37659e-17, No Iterations 3
smoothSolver:  Solving for e, Initial residual = 0.00383244, Final residual = 6.14484e-13, No Iterations 1000
smoothSolver:  Solving for p, Initial residual = 0.00141358, Final residual = 3.07522e-12, No Iterations 1000
diagonal:  Solving for rho, Initial residual = 0, Final residual = 0, No Iterations 0
time step continuity errors : sum local = 1.54194e-15, global = 2.99263e-16, cumulative = 3.35013e-14
ExecutionTime = 28.88 s  ClockTime = 29 s

Time = 0.0085

Courant Number mean: 0.0491646 max: 0.389242
diagonal:  Solving for rho, Initial residual = 0, Final residual = 0, No Iterations 0
PIMPLE: iteration 1
smoothSolver:  Solving for Ux, Initial residual = 0.000221775, Final residual = 1.0128e-16, No Iterations 3
smoothSolver:  Solving for Uy, Initial residual = 0.000336539, Final residual = 7.02589e-17, No Iterations 3
smoothSolver:  Solving for e, Initial residual = 0.0232407, Final residual = 6.17134e-13, No Iterations 1000
smoothSolver:  Solving for p, Initial residual = 0.0389846, Final residual = 3.16052e-12, No Iterations 1000
diagonal:  Solving for rho, Initial residual = 0, Final residual = 0, No Iterations 0
time step continuity errors : sum local = 1.63991e-15, global = 6.58758e-16, cumulative = 3.416e-14
PIMPLE: iteration 2
smoothSolver:  Solving for Ux, Initial residual = 1.42688e-06, Final residual = 8.51736e-17, No Iterations 3
smoothSolver:  Solving for Uy, Initial residual = 2.34388e-06, Final residual = 4.18933e-17, No Iterations 3
smoothSolver:  Solving for e, Initial residual = 0.00368652, Final residual = 5.99402e-13, No Iterations 1000
smoothSolver:  Solving for p, Initial residual = 0.00136783, Final residual = 2.96364e-12, No Iterations 1000
diagonal:  Solving for rho, Initial residual = 0, Final residual = 0, No Iterations 0
time step continuity errors : sum local = 1.5347e-15, global = 4.49136e-16, cumulative = 3.46092e-14
ExecutionTime = 29.77 s  ClockTime = 30 s

Time = 0.00875

Courant Number mean: 0.0491616 max: 0.387421
diagonal:  Solving for rho, Initial residual = 0, Final residual = 0, No Iterations 0
PIMPLE: iteration 1
smoothSolver:  Solving for Ux, Initial residual = 0.000220074, Final residual = 9.56896e-17, No Iterations 3
smoothSolver:  Solving for Uy, Initial residual = 0.000334061, Final residual = 6.78714e-17, No Iterations 3
smoothSolver:  Solving for e, Initial residual = 0.0226708, Final residual = 6.1416e-13, No Iterations 1000
smoothSolver:  Solving for p, Initial residual = 0.0379691, Final residual = 3.14485e-12, No Iterations 1000
diagonal:  Solving for rho, Initial residual = 0, Final residual = 0, No Iterations 0
time step continuity errors : sum local = 1.60546e-15, global = 6.5991e-16, cumulative = 3.52691e-14
PIMPLE: iteration 2
smoothSolver:  Solving for Ux, Initial residual = 1.39873e-06, Final residual = 8.49047e-17, No Iterations 3
smoothSolver:  Solving for Uy, Initial residual = 2.29797e-06, Final residual = 4.18688e-17, No Iterations 3
smoothSolver:  Solving for e, Initial residual = 0.0035321, Final residual = 5.80973e-13, No Iterations 1000
smoothSolver:  Solving for p, Initial residual = 0.00131568, Final residual = 2.95491e-12, No Iterations 1000
diagonal:  Solving for rho, Initial residual = 0, Final residual = 0, No Iterations 0
time step continuity errors : sum local = 1.49224e-15, global = 3.84213e-16, cumulative = 3.56533e-14
ExecutionTime = 30.65 s  ClockTime = 31 s

Time = 0.009

Courant Number mean: 0.0491585 max: 0.385609
diagonal:  Solving for rho, Initial residual = 0, Final residual = 0, No Iterations 0
PIMPLE: iteration 1
smoothSolver:  Solving for Ux, Initial residual = 0.00021868, Final residual = 9.37838e-17, No Iterations 3
smoothSolver:  Solving for Uy, Initial residual = 0.000331435, Final residual = 6.26438e-17, No Iterations 3
smoothSolver:  Solving for e, Initial residual = 0.0220927, Final residual = 5.98102e-13, No Iterations 1000
smoothSolver:  Solving for p, Initial residual = 0.0370001, Final residual = 3.04533e-12, No Iterations 1000
diagonal:  Solving for rho, Initial residual = 0, Final residual = 0, No Iterations 0
time step continuity errors : sum local = 1.65094e-15, global = 6.63519e-16, cumulative = 3.63168e-14
PIMPLE: iteration 2
smoothSolver:  Solving for Ux, Initial residual = 1.36508e-06, Final residual = 8.2742e-17, No Iterations 3
smoothSolver:  Solving for Uy, Initial residual = 2.25317e-06, Final residual = 4.03803e-17, No Iterations 3
smoothSolver:  Solving for e, Initial residual = 0.00342002, Final residual = 5.69603e-13, No Iterations 1000
smoothSolver:  Solving for p, Initial residual = 0.0012692, Final residual = 2.94446e-12, No Iterations 1000
diagonal:  Solving for rho, Initial residual = 0, Final residual = 0, No Iterations 0
time step continuity errors : sum local = 1.49505e-15, global = 4.16785e-16, cumulative = 3.67336e-14
ExecutionTime = 31.54 s  ClockTime = 32 s

Time = 0.00925

Courant Number mean: 0.0491553 max: 0.383806
diagonal:  Solving for rho, Initial residual = 0, Final residual = 0, No Iterations 0
PIMPLE: iteration 1
smoothSolver:  Solving for Ux, Initial residual = 0.000217255, Final residual = 9.1868e-17, No Iterations 3
smoothSolver:  Solving for Uy, Initial residual = 0.000329072, Final residual = 6.2145e-17, No Iterations 3
smoothSolver:  Solving for e, Initial residual = 0.0216117, Final residual = 5.83601e-13, No Iterations 1000
smoothSolver:  Solving for p, Initial residual = 0.0359923, Final residual = 2.95596e-12, No Iterations 1000
diagonal:  Solving for rho, Initial residual = 0, Final residual = 0, No Iterations 0
time step continuity errors : sum local = 1.62949e-15, global = 6.09443e-16, cumulative = 3.73431e-14
PIMPLE: iteration 2
smoothSolver:  Solving for Ux, Initial residual = 1.33611e-06, Final residual = 8.40833e-17, No Iterations 3
smoothSolver:  Solving for Uy, Initial residual = 2.1968e-06, Final residual = 4.29926e-17, No Iterations 3
smoothSolver:  Solving for e, Initial residual = 0.00325708, Final residual = 5.73447e-13, No Iterations 1000
smoothSolver:  Solving for p, Initial residual = 0.00122118, Final residual = 2.87928e-12, No Iterations 1000
diagonal:  Solving for rho, Initial residual = 0, Final residual = 0, No Iterations 0
time step continuity errors : sum local = 1.52205e-15, global = 3.90568e-16, cumulative = 3.77336e-14
ExecutionTime = 32.53 s  ClockTime = 33 s

Time = 0.0095

Courant Number mean: 0.0491521 max: 0.382031
diagonal:  Solving for rho, Initial residual = 0, Final residual = 0, No Iterations 0
PIMPLE: iteration 1
smoothSolver:  Solving for Ux, Initial residual = 0.000215562, Final residual = 9.44795e-17, No Iterations 3
smoothSolver:  Solving for Uy, Initial residual = 0.000326909, Final residual = 6.04646e-17, No Iterations 3
smoothSolver:  Solving for e, Initial residual = 0.0211103, Final residual = 5.90203e-13, No Iterations 1000
smoothSolver:  Solving for p, Initial residual = 0.0350932, Final residual = 3.00974e-12, No Iterations 1000
diagonal:  Solving for rho, Initial residual = 0, Final residual = 0, No Iterations 0
time step continuity errors : sum local = 1.6605e-15, global = 6.4682e-16, cumulative = 3.83804e-14
PIMPLE: iteration 2
smoothSolver:  Solving for Ux, Initial residual = 1.30591e-06, Final residual = 8.43231e-17, No Iterations 3
smoothSolver:  Solving for Uy, Initial residual = 2.15003e-06, Final residual = 4.16925e-17, No Iterations 3
smoothSolver:  Solving for e, Initial residual = 0.00310576, Final residual = 5.62226e-13, No Iterations 1000
smoothSolver:  Solving for p, Initial residual = 0.00117449, Final residual = 2.78261e-12, No Iterations 1000
diagonal:  Solving for rho, Initial residual = 0, Final residual = 0, No Iterations 0
time step continuity errors : sum local = 1.49367e-15, global = 4.00308e-16, cumulative = 3.87808e-14
ExecutionTime = 33.41 s  ClockTime = 34 s

Time = 0.00975

Courant Number mean: 0.0491489 max: 0.38035
diagonal:  Solving for rho, Initial residual = 0, Final residual = 0, No Iterations 0
PIMPLE: iteration 1
smoothSolver:  Solving for Ux, Initial residual = 0.000214485, Final residual = 9.24833e-17, No Iterations 3
smoothSolver:  Solving for Uy, Initial residual = 0.000324737, Final residual = 5.71873e-17, No Iterations 3
smoothSolver:  Solving for e, Initial residual = 0.0206261, Final residual = 5.77227e-13, No Iterations 1000
smoothSolver:  Solving for p, Initial residual = 0.0341178, Final residual = 2.89194e-12, No Iterations 1000
diagonal:  Solving for rho, Initial residual = 0, Final residual = 0, No Iterations 0
time step continuity errors : sum local = 1.60253e-15, global = 5.58897e-16, cumulative = 3.93396e-14
PIMPLE: iteration 2
smoothSolver:  Solving for Ux, Initial residual = 1.28749e-06, Final residual = 8.60227e-17, No Iterations 3
smoothSolver:  Solving for Uy, Initial residual = 2.11148e-06, Final residual = 4.0528e-17, No Iterations 3
smoothSolver:  Solving for e, Initial residual = 0.00299576, Final residual = 5.71731e-13, No Iterations 1000
smoothSolver:  Solving for p, Initial residual = 0.0011405, Final residual = 2.802e-12, No Iterations 1000
diagonal:  Solving for rho, Initial residual = 0, Final residual = 0, No Iterations 0
time step continuity errors : sum local = 1.5313e-15, global = 3.40539e-16, cumulative = 3.96802e-14
ExecutionTime = 34.29 s  ClockTime = 35 s

Time = 0.01

Courant Number mean: 0.0491456 max: 0.378711
diagonal:  Solving for rho, Initial residual = 0, Final residual = 0, No Iterations 0
PIMPLE: iteration 1
smoothSolver:  Solving for Ux, Initial residual = 0.000213163, Final residual = 9.38441e-17, No Iterations 3
smoothSolver:  Solving for Uy, Initial residual = 0.000322341, Final residual = 5.86292e-17, No Iterations 3
smoothSolver:  Solving for e, Initial residual = 0.0201195, Final residual = 5.71523e-13, No Iterations 1000
smoothSolver:  Solving for p, Initial residual = 0.0332184, Final residual = 2.90134e-12, No Iterations 1000
diagonal:  Solving for rho, Initial residual = 0, Final residual = 0, No Iterations 0
time step continuity errors : sum local = 1.72344e-15, global = 7.04502e-16, cumulative = 4.03847e-14
PIMPLE: iteration 2
smoothSolver:  Solving for Ux, Initial residual = 1.27224e-06, Final residual = 9.17459e-17, No Iterations 3
smoothSolver:  Solving for Uy, Initial residual = 2.10127e-06, Final residual = 4.13434e-17, No Iterations 3
smoothSolver:  Solving for e, Initial residual = 0.00290369, Final residual = 5.46238e-13, No Iterations 1000
smoothSolver:  Solving for p, Initial residual = 0.00110326, Final residual = 2.72126e-12, No Iterations 1000
diagonal:  Solving for rho, Initial residual = 0, Final residual = 0, No Iterations 0
time step continuity errors : sum local = 1.54284e-15, global = 4.46655e-16, cumulative = 4.08313e-14
ExecutionTime = 35.18 s  ClockTime = 36 s

writeRegisteredObject rhofunc output:
    writing object rho

    writing object phi

Time = 0.01025

Courant Number mean: 0.0491422 max: 0.377128
diagonal:  Solving for rho, Initial residual = 0, Final residual = 0, No Iterations 0
PIMPLE: iteration 1
smoothSolver:  Solving for Ux, Initial residual = 0.000211804, Final residual = 8.99033e-17, No Iterations 3
smoothSolver:  Solving for Uy, Initial residual = 0.000319949, Final residual = 5.78549e-17, No Iterations 3
smoothSolver:  Solving for e, Initial residual = 0.0196172, Final residual = 5.58553e-13, No Iterations 1000
smoothSolver:  Solving for p, Initial residual = 0.0323974, Final residual = 2.80723e-12, No Iterations 1000
diagonal:  Solving for rho, Initial residual = 0, Final residual = 0, No Iterations 0
time step continuity errors : sum local = 1.66274e-15, global = 6.83966e-16, cumulative = 4.15153e-14
PIMPLE: iteration 2
smoothSolver:  Solving for Ux, Initial residual = 1.24748e-06, Final residual = 8.91013e-17, No Iterations 3
smoothSolver:  Solving for Uy, Initial residual = 2.04732e-06, Final residual = 4.3891e-17, No Iterations 3
smoothSolver:  Solving for e, Initial residual = 0.00279567, Final residual = 5.44282e-13, No Iterations 1000
smoothSolver:  Solving for p, Initial residual = 0.00106282, Final residual = 2.71168e-12, No Iterations 1000
diagonal:  Solving for rho, Initial residual = 0, Final residual = 0, No Iterations 0
time step continuity errors : sum local = 1.51163e-15, global = 3.82773e-16, cumulative = 4.18981e-14
ExecutionTime = 36.06 s  ClockTime = 37 s

Time = 0.0105

Courant Number mean: 0.0491388 max: 0.375597
diagonal:  Solving for rho, Initial residual = 0, Final residual = 0, No Iterations 0
PIMPLE: iteration 1
smoothSolver:  Solving for Ux, Initial residual = 0.000210799, Final residual = 8.7541e-17, No Iterations 3
smoothSolver:  Solving for Uy, Initial residual = 0.000317929, Final residual = 5.55306e-17, No Iterations 3
smoothSolver:  Solving for e, Initial residual = 0.0191696, Final residual = 5.54856e-13, No Iterations 1000
smoothSolver:  Solving for p, Initial residual = 0.0315217, Final residual = 2.80564e-12, No Iterations 1000
diagonal:  Solving for rho, Initial residual = 0, Final residual = 0, No Iterations 0
time step continuity errors : sum local = 1.67392e-15, global = 6.31402e-16, cumulative = 4.25295e-14
PIMPLE: iteration 2
smoothSolver:  Solving for Ux, Initial residual = 1.22207e-06, Final residual = 8.67298e-17, No Iterations 3
smoothSolver:  Solving for Uy, Initial residual = 2.01061e-06, Final residual = 4.15026e-17, No Iterations 3
smoothSolver:  Solving for e, Initial residual = 0.00268043, Final residual = 5.40174e-13, No Iterations 1000
smoothSolver:  Solving for p, Initial residual = 0.00101744, Final residual = 2.59821e-12, No Iterations 1000
diagonal:  Solving for rho, Initial residual = 0, Final residual = 0, No Iterations 0
time step continuity errors : sum local = 1.51222e-15, global = 3.88358e-16, cumulative = 4.29178e-14
ExecutionTime = 36.93 s  ClockTime = 38 s

Time = 0.01075

Courant Number mean: 0.0491354 max: 0.376099
diagonal:  Solving for rho, Initial residual = 0, Final residual = 0, No Iterations 0
PIMPLE: iteration 1
smoothSolver:  Solving for Ux, Initial residual = 0.000209637, Final residual = 8.93801e-17, No Iterations 3
smoothSolver:  Solving for Uy, Initial residual = 0.000315891, Final residual = 5.446e-17, No Iterations 3
smoothSolver:  Solving for e, Initial residual = 0.0187237, Final residual = 5.43699e-13, No Iterations 1000
smoothSolver:  Solving for p, Initial residual = 0.0306075, Final residual = 2.76078e-12, No Iterations 1000
diagonal:  Solving for rho, Initial residual = 0, Final residual = 0, No Iterations 0
time step continuity errors : sum local = 1.67213e-15, global = 6.08076e-16, cumulative = 4.35259e-14
PIMPLE: iteration 2
smoothSolver:  Solving for Ux, Initial residual = 1.19442e-06, Final residual = 8.62552e-17, No Iterations 3
smoothSolver:  Solving for Uy, Initial residual = 1.9505e-06, Final residual = 4.39332e-17, No Iterations 3
smoothSolver:  Solving for e, Initial residual = 0.00256572, Final residual = 5.27627e-13, No Iterations 1000
smoothSolver:  Solving for p, Initial residual = 0.000978594, Final residual = 2.64753e-12, No Iterations 1000
diagonal:  Solving for rho, Initial residual = 0, Final residual = 0, No Iterations 0
time step continuity errors : sum local = 1.5444e-15, global = 4.05747e-16, cumulative = 4.39317e-14
ExecutionTime = 37.8 s  ClockTime = 38 s

Time = 0.011

Courant Number mean: 0.0491319 max: 0.376806
diagonal:  Solving for rho, Initial residual = 0, Final residual = 0, No Iterations 0
PIMPLE: iteration 1
smoothSolver:  Solving for Ux, Initial residual = 0.000208587, Final residual = 9.26556e-17, No Iterations 3
smoothSolver:  Solving for Uy, Initial residual = 0.000314012, Final residual = 5.22913e-17, No Iterations 3
smoothSolver:  Solving for e, Initial residual = 0.0182609, Final residual = 5.4426e-13, No Iterations 1000
smoothSolver:  Solving for p, Initial residual = 0.029725, Final residual = 2.7159e-12, No Iterations 1000
diagonal:  Solving for rho, Initial residual = 0, Final residual = 0, No Iterations 0
time step continuity errors : sum local = 1.59911e-15, global = 5.16697e-16, cumulative = 4.44484e-14
PIMPLE: iteration 2
smoothSolver:  Solving for Ux, Initial residual = 1.15549e-06, Final residual = 8.26436e-17, No Iterations 3
smoothSolver:  Solving for Uy, Initial residual = 1.92406e-06, Final residual = 4.25788e-17, No Iterations 3
smoothSolver:  Solving for e, Initial residual = 0.00244897, Final residual = 5.17758e-13, No Iterations 1000
smoothSolver:  Solving for p, Initial residual = 0.000947164, Final residual = 2.51418e-12, No Iterations 1000
diagonal:  Solving for rho, Initial residual = 0, Final residual = 0, No Iterations 0
time step continuity errors : sum local = 1.46903e-15, global = 3.13593e-16, cumulative = 4.4762e-14
ExecutionTime = 38.66 s  ClockTime = 39 s

Time = 0.01125

Courant Number mean: 0.0491284 max: 0.377484
diagonal:  Solving for rho, Initial residual = 0, Final residual = 0, No Iterations 0
PIMPLE: iteration 1
smoothSolver:  Solving for Ux, Initial residual = 0.000207675, Final residual = 9.36301e-17, No Iterations 3
smoothSolver:  Solving for Uy, Initial residual = 0.000312224, Final residual = 5.321e-17, No Iterations 3
smoothSolver:  Solving for e, Initial residual = 0.0177891, Final residual = 5.18919e-13, No Iterations 1000
smoothSolver:  Solving for p, Initial residual = 0.0288527, Final residual = 2.691e-12, No Iterations 1000
diagonal:  Solving for rho, Initial residual = 0, Final residual = 0, No Iterations 0
time step continuity errors : sum local = 1.73307e-15, global = 7.06313e-16, cumulative = 4.54683e-14
PIMPLE: iteration 2
smoothSolver:  Solving for Ux, Initial residual = 1.14752e-06, Final residual = 8.73821e-17, No Iterations 3
smoothSolver:  Solving for Uy, Initial residual = 1.87409e-06, Final residual = 4.51122e-17, No Iterations 3
smoothSolver:  Solving for e, Initial residual = 0.00234631, Final residual = 5.12102e-13, No Iterations 1000
smoothSolver:  Solving for p, Initial residual = 0.000919247, Final residual = 2.50337e-12, No Iterations 1000
diagonal:  Solving for rho, Initial residual = 0, Final residual = 0, No Iterations 0
time step continuity errors : sum local = 1.55211e-15, global = 3.98461e-16, cumulative = 4.58667e-14
ExecutionTime = 39.54 s  ClockTime = 40 s

Time = 0.0115

Courant Number mean: 0.0491249 max: 0.378128
diagonal:  Solving for rho, Initial residual = 0, Final residual = 0, No Iterations 0
PIMPLE: iteration 1
smoothSolver:  Solving for Ux, Initial residual = 0.000206866, Final residual = 9.19358e-17, No Iterations 3
smoothSolver:  Solving for Uy, Initial residual = 0.000310739, Final residual = 5.08544e-17, No Iterations 3
smoothSolver:  Solving for e, Initial residual = 0.0173252, Final residual = 5.07838e-13, No Iterations 1000
smoothSolver:  Solving for p, Initial residual = 0.0279894, Final residual = 2.56154e-12, No Iterations 1000
diagonal:  Solving for rho, Initial residual = 0, Final residual = 0, No Iterations 0
time step continuity errors : sum local = 1.62259e-15, global = 6.14209e-16, cumulative = 4.64809e-14
PIMPLE: iteration 2
smoothSolver:  Solving for Ux, Initial residual = 1.12139e-06, Final residual = 8.48723e-17, No Iterations 3
smoothSolver:  Solving for Uy, Initial residual = 1.85585e-06, Final residual = 4.24366e-17, No Iterations 3
smoothSolver:  Solving for e, Initial residual = 0.00225887, Final residual = 5.13968e-13, No Iterations 1000
smoothSolver:  Solving for p, Initial residual = 0.000880911, Final residual = 2.43357e-12, No Iterations 1000
diagonal:  Solving for rho, Initial residual = 0, Final residual = 0, No Iterations 0
time step continuity errors : sum local = 1.53891e-15, global = 3.69323e-16, cumulative = 4.68503e-14
ExecutionTime = 40.42 s  ClockTime = 41 s

Time = 0.01175

Courant Number mean: 0.0491214 max: 0.378743
diagonal:  Solving for rho, Initial residual = 0, Final residual = 0, No Iterations 0
PIMPLE: iteration 1
smoothSolver:  Solving for Ux, Initial residual = 0.000205977, Final residual = 9.13385e-17, No Iterations 3
smoothSolver:  Solving for Uy, Initial residual = 0.000309112, Final residual = 4.75712e-17, No Iterations 3
smoothSolver:  Solving for e, Initial residual = 0.0168654, Final residual = 5.08501e-13, No Iterations 1000
smoothSolver:  Solving for p, Initial residual = 0.027125, Final residual = 2.55984e-12, No Iterations 1000
diagonal:  Solving for rho, Initial residual = 0, Final residual = 0, No Iterations 0
time step continuity errors : sum local = 1.63894e-15, global = 5.36372e-16, cumulative = 4.73866e-14
PIMPLE: iteration 2
smoothSolver:  Solving for Ux, Initial residual = 1.12014e-06, Final residual = 8.66837e-17, No Iterations 3
smoothSolver:  Solving for Uy, Initial residual = 1.83884e-06, Final residual = 4.31796e-17, No Iterations 3
smoothSolver:  Solving for e, Initial residual = 0.00219053, Final residual = 5.15775e-13, No Iterations 1000
smoothSolver:  Solving for p, Initial residual = 0.000846612, Final residual = 2.44404e-12, No Iterations 1000
diagonal:  Solving for rho, Initial residual = 0, Final residual = 0, No Iterations 0
time step continuity errors : sum local = 1.52637e-15, global = 2.95234e-16, cumulative = 4.76819e-14
ExecutionTime = 41.29 s  ClockTime = 42 s

Time = 0.012

Courant Number mean: 0.0491179 max: 0.379325
diagonal:  Solving for rho, Initial residual = 0, Final residual = 0, No Iterations 0
PIMPLE: iteration 1
smoothSolver:  Solving for Ux, Initial residual = 0.00020478, Final residual = 8.93453e-17, No Iterations 3
smoothSolver:  Solving for Uy, Initial residual = 0.000307254, Final residual = 4.81774e-17, No Iterations 3
smoothSolver:  Solving for e, Initial residual = 0.0164064, Final residual = 4.99701e-13, No Iterations 1000
smoothSolver:  Solving for p, Initial residual = 0.0262034, Final residual = 2.49879e-12, No Iterations 1000
diagonal:  Solving for rho, Initial residual = 0, Final residual = 0, No Iterations 0
time step continuity errors : sum local = 1.61128e-15, global = 6.62295e-16, cumulative = 4.83442e-14
PIMPLE: iteration 2
smoothSolver:  Solving for Ux, Initial residual = 1.07525e-06, Final residual = 8.5597e-17, No Iterations 3
smoothSolver:  Solving for Uy, Initial residual = 1.79836e-06, Final residual = 4.34983e-17, No Iterations 3
smoothSolver:  Solving for e, Initial residual = 0.00215139, Final residual = 4.85488e-13, No Iterations 1000
smoothSolver:  Solving for p, Initial residual = 0.000825424, Final residual = 2.43125e-12, No Iterations 1000
diagonal:  Solving for rho, Initial residual = 0, Final residual = 0, No Iterations 0
time step continuity errors : sum local = 1.52661e-15, global = 3.06461e-16, cumulative = 4.86506e-14
ExecutionTime = 42.16 s  ClockTime = 43 s

Time = 0.01225

Courant Number mean: 0.0491143 max: 0.379864
diagonal:  Solving for rho, Initial residual = 0, Final residual = 0, No Iterations 0
PIMPLE: iteration 1
smoothSolver:  Solving for Ux, Initial residual = 0.000203581, Final residual = 9.05117e-17, No Iterations 3
smoothSolver:  Solving for Uy, Initial residual = 0.000305428, Final residual = 4.81995e-17, No Iterations 3
smoothSolver:  Solving for e, Initial residual = 0.0159712, Final residual = 4.82251e-13, No Iterations 1000
smoothSolver:  Solving for p, Initial residual = 0.0253882, Final residual = 2.46281e-12, No Iterations 1000
diagonal:  Solving for rho, Initial residual = 0, Final residual = 0, No Iterations 0
time step continuity errors : sum local = 1.59999e-15, global = 4.58855e-16, cumulative = 4.91095e-14
PIMPLE: iteration 2
smoothSolver:  Solving for Ux, Initial residual = 1.04346e-06, Final residual = 8.83202e-17, No Iterations 3
smoothSolver:  Solving for Uy, Initial residual = 1.78713e-06, Final residual = 4.19128e-17, No Iterations 3
smoothSolver:  Solving for e, Initial residual = 0.00210828, Final residual = 4.82406e-13, No Iterations 1000
smoothSolver:  Solving for p, Initial residual = 0.00080808, Final residual = 2.29678e-12, No Iterations 1000
diagonal:  Solving for rho, Initial residual = 0, Final residual = 0, No Iterations 0
time step continuity errors : sum local = 1.51366e-15, global = 2.71376e-16, cumulative = 4.93809e-14
ExecutionTime = 43.03 s  ClockTime = 44 s

Time = 0.0125

Courant Number mean: 0.0491108 max: 0.380375
diagonal:  Solving for rho, Initial residual = 0, Final residual = 0, No Iterations 0
PIMPLE: iteration 1
smoothSolver:  Solving for Ux, Initial residual = 0.0002025, Final residual = 9.34772e-17, No Iterations 3
smoothSolver:  Solving for Uy, Initial residual = 0.000303682, Final residual = 4.77923e-17, No Iterations 3
smoothSolver:  Solving for e, Initial residual = 0.0155609, Final residual = 4.89008e-13, No Iterations 1000
smoothSolver:  Solving for p, Initial residual = 0.0245956, Final residual = 2.38539e-12, No Iterations 1000
diagonal:  Solving for rho, Initial residual = 0, Final residual = 0, No Iterations 0
time step continuity errors : sum local = 1.61835e-15, global = 6.15072e-16, cumulative = 4.99959e-14
PIMPLE: iteration 2
smoothSolver:  Solving for Ux, Initial residual = 1.00581e-06, Final residual = 8.82616e-17, No Iterations 3
smoothSolver:  Solving for Uy, Initial residual = 1.77468e-06, Final residual = 4.05276e-17, No Iterations 3
smoothSolver:  Solving for e, Initial residual = 0.00205872, Final residual = 4.75037e-13, No Iterations 1000
smoothSolver:  Solving for p, Initial residual = 0.000786954, Final residual = 2.32756e-12, No Iterations 1000
diagonal:  Solving for rho, Initial residual = 0, Final residual = 0, No Iterations 0
time step continuity errors : sum local = 1.55972e-15, global = 3.1566e-16, cumulative = 5.03116e-14
ExecutionTime = 43.89 s  ClockTime = 45 s

Time = 0.01275

Courant Number mean: 0.0491072 max: 0.380849
diagonal:  Solving for rho, Initial residual = 0, Final residual = 0, No Iterations 0
PIMPLE: iteration 1
smoothSolver:  Solving for Ux, Initial residual = 0.000200943, Final residual = 9.176e-17, No Iterations 3
smoothSolver:  Solving for Uy, Initial residual = 0.000302272, Final residual = 4.81526e-17, No Iterations 3
smoothSolver:  Solving for e, Initial residual = 0.0151506, Final residual = 4.65829e-13, No Iterations 1000
smoothSolver:  Solving for p, Initial residual = 0.023917, Final residual = 2.41668e-12, No Iterations 1000
diagonal:  Solving for rho, Initial residual = 0, Final residual = 0, No Iterations 0
time step continuity errors : sum local = 1.63022e-15, global = 5.86824e-16, cumulative = 5.08984e-14
PIMPLE: iteration 2
smoothSolver:  Solving for Ux, Initial residual = 9.7941e-07, Final residual = 8.40418e-17, No Iterations 3
smoothSolver:  Solving for Uy, Initial residual = 1.75855e-06, Final residual = 4.44711e-17, No Iterations 3
smoothSolver:  Solving for e, Initial residual = 0.00200323, Final residual = 4.74463e-13, No Iterations 1000
smoothSolver:  Solving for p, Initial residual = 0.000766849, Final residual = 2.32325e-12, No Iterations 1000
diagonal:  Solving for rho, Initial residual = 0, Final residual = 0, No Iterations 0
time step continuity errors : sum local = 1.51713e-15, global = 2.87872e-16, cumulative = 5.11863e-14
ExecutionTime = 44.75 s  ClockTime = 45 s

Time = 0.013

Courant Number mean: 0.0491036 max: 0.381298
diagonal:  Solving for rho, Initial residual = 0, Final residual = 0, No Iterations 0
PIMPLE: iteration 1
smoothSolver:  Solving for Ux, Initial residual = 0.000199521, Final residual = 9.04174e-17, No Iterations 3
smoothSolver:  Solving for Uy, Initial residual = 0.000300915, Final residual = 4.67578e-17, No Iterations 3
smoothSolver:  Solving for e, Initial residual = 0.0147972, Final residual = 4.54372e-13, No Iterations 1000
smoothSolver:  Solving for p, Initial residual = 0.0233402, Final residual = 2.34155e-12, No Iterations 1000
diagonal:  Solving for rho, Initial residual = 0, Final residual = 0, No Iterations 0
time step continuity errors : sum local = 1.60567e-15, global = 5.47275e-16, cumulative = 5.17336e-14
PIMPLE: iteration 2
smoothSolver:  Solving for Ux, Initial residual = 9.71821e-07, Final residual = 8.74249e-17, No Iterations 3
smoothSolver:  Solving for Uy, Initial residual = 1.76612e-06, Final residual = 4.18431e-17, No Iterations 3
smoothSolver:  Solving for e, Initial residual = 0.00195047, Final residual = 4.7242e-13, No Iterations 1000
smoothSolver:  Solving for p, Initial residual = 0.000748444, Final residual = 2.30012e-12, No Iterations 1000
diagonal:  Solving for rho, Initial residual = 0, Final residual = 0, No Iterations 0
time step continuity errors : sum local = 1.56045e-15, global = 2.91982e-16, cumulative = 5.20255e-14
ExecutionTime = 45.63 s  ClockTime = 46 s

Time = 0.01325

Courant Number mean: 0.0491 max: 0.381716
diagonal:  Solving for rho, Initial residual = 0, Final residual = 0, No Iterations 0
PIMPLE: iteration 1
smoothSolver:  Solving for Ux, Initial residual = 0.000197184, Final residual = 8.71229e-17, No Iterations 3
smoothSolver:  Solving for Uy, Initial residual = 0.00029916, Final residual = 4.61624e-17, No Iterations 3
smoothSolver:  Solving for e, Initial residual = 0.0145011, Final residual = 4.59945e-13, No Iterations 1000
smoothSolver:  Solving for p, Initial residual = 0.0229151, Final residual = 2.25819e-12, No Iterations 1000
diagonal:  Solving for rho, Initial residual = 0, Final residual = 0, No Iterations 0
time step continuity errors : sum local = 1.59688e-15, global = 5.07794e-16, cumulative = 5.25333e-14
PIMPLE: iteration 2
smoothSolver:  Solving for Ux, Initial residual = 9.52456e-07, Final residual = 8.60529e-17, No Iterations 3
smoothSolver:  Solving for Uy, Initial residual = 1.76521e-06, Final residual = 4.39768e-17, No Iterations 3
smoothSolver:  Solving for e, Initial residual = 0.00189668, Final residual = 4.66174e-13, No Iterations 1000
smoothSolver:  Solving for p, Initial residual = 0.000726571, Final residual = 2.27192e-12, No Iterations 1000
diagonal:  Solving for rho, Initial residual = 0, Final residual = 0, No Iterations 0
time step continuity errors : sum local = 1.52251e-15, global = 2.7949e-16, cumulative = 5.28128e-14
[...]
smoothSolver:  Solving for Uy, Initial residual = 2.41337e-06, Final residual = 1.07e-16, No Iterations 2
smoothSolver:  Solving for e, Initial residual = 1.72717e-05, Final residual = 4.85415e-14, No Iterations 1000
smoothSolver:  Solving for p, Initial residual = 9.91065e-06, Final residual = 1.26882e-13, No Iterations 1000
diagonal:  Solving for rho, Initial residual = 0, Final residual = 0, No Iterations 0
time step continuity errors : sum local = 1.64608e-15, global = -1.95336e-16, cumulative = 1.72839e-12
ExecutionTime = 2149.33 s  ClockTime = 2176 s

Time = 0.597

Courant Number mean: 0.00530229 max: 0.0761009
diagonal:  Solving for rho, Initial residual = 0, Final residual = 0, No Iterations 0
PIMPLE: iteration 1
smoothSolver:  Solving for Ux, Initial residual = 0.000933922, Final residual = 3.25017e-17, No Iterations 3
smoothSolver:  Solving for Uy, Initial residual = 0.000897447, Final residual = 3.17304e-17, No Iterations 3
smoothSolver:  Solving for e, Initial residual = 0.00450053, Final residual = 4.83771e-14, No Iterations 1000
smoothSolver:  Solving for p, Initial residual = 0.00455991, Final residual = 1.25453e-13, No Iterations 1000
diagonal:  Solving for rho, Initial residual = 0, Final residual = 0, No Iterations 0
time step continuity errors : sum local = 1.64807e-15, global = 7.90859e-16, cumulative = 1.72918e-12
PIMPLE: iteration 2
smoothSolver:  Solving for Ux, Initial residual = 9.62093e-07, Final residual = 1.26516e-16, No Iterations 2
smoothSolver:  Solving for Uy, Initial residual = 2.43226e-06, Final residual = 1.07627e-16, No Iterations 2
smoothSolver:  Solving for e, Initial residual = 1.7202e-05, Final residual = 4.71165e-14, No Iterations 1000
smoothSolver:  Solving for p, Initial residual = 9.78462e-06, Final residual = 1.24466e-13, No Iterations 1000
diagonal:  Solving for rho, Initial residual = 0, Final residual = 0, No Iterations 0
time step continuity errors : sum local = 1.64786e-15, global = -1.87369e-16, cumulative = 1.72899e-12
ExecutionTime = 2150.2 s  ClockTime = 2177 s

Time = 0.59725

Courant Number mean: 0.00530795 max: 0.0761142
diagonal:  Solving for rho, Initial residual = 0, Final residual = 0, No Iterations 0
PIMPLE: iteration 1
smoothSolver:  Solving for Ux, Initial residual = 0.000938691, Final residual = 3.4197e-17, No Iterations 3
smoothSolver:  Solving for Uy, Initial residual = 0.000903031, Final residual = 3.00993e-17, No Iterations 3
smoothSolver:  Solving for e, Initial residual = 0.00445152, Final residual = 4.82154e-14, No Iterations 1000
smoothSolver:  Solving for p, Initial residual = 0.00450508, Final residual = 1.25713e-13, No Iterations 1000
diagonal:  Solving for rho, Initial residual = 0, Final residual = 0, No Iterations 0
time step continuity errors : sum local = 1.64178e-15, global = 7.50786e-16, cumulative = 1.72974e-12
PIMPLE: iteration 2
smoothSolver:  Solving for Ux, Initial residual = 9.60268e-07, Final residual = 1.20307e-16, No Iterations 2
smoothSolver:  Solving for Uy, Initial residual = 2.43181e-06, Final residual = 1.02239e-16, No Iterations 2
smoothSolver:  Solving for e, Initial residual = 1.69187e-05, Final residual = 4.77211e-14, No Iterations 1000
smoothSolver:  Solving for p, Initial residual = 9.30379e-06, Final residual = 1.2034e-13, No Iterations 1000
diagonal:  Solving for rho, Initial residual = 0, Final residual = 0, No Iterations 0
time step continuity errors : sum local = 1.62846e-15, global = -1.37523e-16, cumulative = 1.72961e-12
ExecutionTime = 2151.07 s  ClockTime = 2178 s

Time = 0.5975

Courant Number mean: 0.00531379 max: 0.0761282
diagonal:  Solving for rho, Initial residual = 0, Final residual = 0, No Iterations 0
PIMPLE: iteration 1
smoothSolver:  Solving for Ux, Initial residual = 0.000943427, Final residual = 3.36054e-17, No Iterations 3
smoothSolver:  Solving for Uy, Initial residual = 0.000908511, Final residual = 2.92499e-17, No Iterations 3
smoothSolver:  Solving for e, Initial residual = 0.00440351, Final residual = 4.67944e-14, No Iterations 1000
smoothSolver:  Solving for p, Initial residual = 0.00445102, Final residual = 1.22234e-13, No Iterations 1000
diagonal:  Solving for rho, Initial residual = 0, Final residual = 0, No Iterations 0
time step continuity errors : sum local = 1.64975e-15, global = 7.63007e-16, cumulative = 1.73037e-12
PIMPLE: iteration 2
smoothSolver:  Solving for Ux, Initial residual = 9.5336e-07, Final residual = 1.21177e-16, No Iterations 2
smoothSolver:  Solving for Uy, Initial residual = 2.4118e-06, Final residual = 9.68617e-17, No Iterations 2
smoothSolver:  Solving for e, Initial residual = 1.78741e-05, Final residual = 4.57652e-14, No Iterations 1000
smoothSolver:  Solving for p, Initial residual = 9.26277e-06, Final residual = 1.20624e-13, No Iterations 1000
diagonal:  Solving for rho, Initial residual = 0, Final residual = 0, No Iterations 0
time step continuity errors : sum local = 1.66064e-15, global = -1.61172e-16, cumulative = 1.73021e-12
ExecutionTime = 2151.94 s  ClockTime = 2179 s

Time = 0.59775

Courant Number mean: 0.00531973 max: 0.0761417
diagonal:  Solving for rho, Initial residual = 0, Final residual = 0, No Iterations 0
PIMPLE: iteration 1
smoothSolver:  Solving for Ux, Initial residual = 0.00094793, Final residual = 3.407e-17, No Iterations 3
smoothSolver:  Solving for Uy, Initial residual = 0.000913922, Final residual = 2.78947e-17, No Iterations 3
smoothSolver:  Solving for e, Initial residual = 0.00435644, Final residual = 4.60672e-14, No Iterations 1000
smoothSolver:  Solving for p, Initial residual = 0.00440035, Final residual = 1.21102e-13, No Iterations 1000
diagonal:  Solving for rho, Initial residual = 0, Final residual = 0, No Iterations 0
time step continuity errors : sum local = 1.641e-15, global = 7.3408e-16, cumulative = 1.73094e-12
PIMPLE: iteration 2
smoothSolver:  Solving for Ux, Initial residual = 9.54083e-07, Final residual = 1.19138e-16, No Iterations 2
smoothSolver:  Solving for Uy, Initial residual = 2.41529e-06, Final residual = 9.96877e-17, No Iterations 2
smoothSolver:  Solving for e, Initial residual = 1.72192e-05, Final residual = 4.55547e-14, No Iterations 1000
smoothSolver:  Solving for p, Initial residual = 9.16104e-06, Final residual = 1.19784e-13, No Iterations 1000
diagonal:  Solving for rho, Initial residual = 0, Final residual = 0, No Iterations 0
time step continuity errors : sum local = 1.64067e-15, global = -1.82836e-16, cumulative = 1.73076e-12
ExecutionTime = 2152.83 s  ClockTime = 2180 s

Time = 0.598

Courant Number mean: 0.00532577 max: 0.0761559
diagonal:  Solving for rho, Initial residual = 0, Final residual = 0, No Iterations 0
PIMPLE: iteration 1
smoothSolver:  Solving for Ux, Initial residual = 0.000952241, Final residual = 3.40012e-17, No Iterations 3
smoothSolver:  Solving for Uy, Initial residual = 0.000919233, Final residual = 3.13767e-17, No Iterations 3
smoothSolver:  Solving for e, Initial residual = 0.0043103, Final residual = 4.59762e-14, No Iterations 1000
smoothSolver:  Solving for p, Initial residual = 0.00434767, Final residual = 1.20699e-13, No Iterations 1000
diagonal:  Solving for rho, Initial residual = 0, Final residual = 0, No Iterations 0
time step continuity errors : sum local = 1.61774e-15, global = 7.16062e-16, cumulative = 1.73148e-12
PIMPLE: iteration 2
smoothSolver:  Solving for Ux, Initial residual = 9.62057e-07, Final residual = 1.24635e-16, No Iterations 2
smoothSolver:  Solving for Uy, Initial residual = 2.45179e-06, Final residual = 9.87791e-17, No Iterations 2
smoothSolver:  Solving for e, Initial residual = 1.70525e-05, Final residual = 4.45328e-14, No Iterations 1000
smoothSolver:  Solving for p, Initial residual = 9.18625e-06, Final residual = 1.17798e-13, No Iterations 1000
diagonal:  Solving for rho, Initial residual = 0, Final residual = 0, No Iterations 0
time step continuity errors : sum local = 1.65606e-15, global = -1.92073e-16, cumulative = 1.73128e-12
ExecutionTime = 2153.72 s  ClockTime = 2181 s

Time = 0.59825

Courant Number mean: 0.0053319 max: 0.0761695
diagonal:  Solving for rho, Initial residual = 0, Final residual = 0, No Iterations 0
PIMPLE: iteration 1
smoothSolver:  Solving for Ux, Initial residual = 0.00095687, Final residual = 3.46448e-17, No Iterations 3
smoothSolver:  Solving for Uy, Initial residual = 0.000924611, Final residual = 3.00801e-17, No Iterations 3
smoothSolver:  Solving for e, Initial residual = 0.00426503, Final residual = 4.49832e-14, No Iterations 1000
smoothSolver:  Solving for p, Initial residual = 0.00429785, Final residual = 1.16619e-13, No Iterations 1000
diagonal:  Solving for rho, Initial residual = 0, Final residual = 0, No Iterations 0
time step continuity errors : sum local = 1.62117e-15, global = 7.20383e-16, cumulative = 1.732e-12
PIMPLE: iteration 2
smoothSolver:  Solving for Ux, Initial residual = 9.6333e-07, Final residual = 1.28676e-16, No Iterations 2
smoothSolver:  Solving for Uy, Initial residual = 2.4474e-06, Final residual = 9.30594e-17, No Iterations 2
smoothSolver:  Solving for e, Initial residual = 1.71685e-05, Final residual = 4.48013e-14, No Iterations 1000
smoothSolver:  Solving for p, Initial residual = 9.06642e-06, Final residual = 1.17592e-13, No Iterations 1000
diagonal:  Solving for rho, Initial residual = 0, Final residual = 0, No Iterations 0
time step continuity errors : sum local = 1.62408e-15, global = -1.59761e-16, cumulative = 1.73184e-12
ExecutionTime = 2154.59 s  ClockTime = 2182 s

Time = 0.5985

Courant Number mean: 0.00533812 max: 0.0761836
diagonal:  Solving for rho, Initial residual = 0, Final residual = 0, No Iterations 0
PIMPLE: iteration 1
smoothSolver:  Solving for Ux, Initial residual = 0.000961504, Final residual = 3.31783e-17, No Iterations 3
smoothSolver:  Solving for Uy, Initial residual = 0.000929058, Final residual = 2.99413e-17, No Iterations 3
smoothSolver:  Solving for e, Initial residual = 0.00422063, Final residual = 4.4407e-14, No Iterations 1000
smoothSolver:  Solving for p, Initial residual = 0.00424902, Final residual = 1.15647e-13, No Iterations 1000
diagonal:  Solving for rho, Initial residual = 0, Final residual = 0, No Iterations 0
time step continuity errors : sum local = 1.65805e-15, global = 7.74806e-16, cumulative = 1.73262e-12
PIMPLE: iteration 2
smoothSolver:  Solving for Ux, Initial residual = 9.60551e-07, Final residual = 1.33354e-16, No Iterations 2
smoothSolver:  Solving for Uy, Initial residual = 2.43237e-06, Final residual = 9.03199e-17, No Iterations 2
smoothSolver:  Solving for e, Initial residual = 1.70711e-05, Final residual = 4.49126e-14, No Iterations 1000
smoothSolver:  Solving for p, Initial residual = 8.85484e-06, Final residual = 1.15958e-13, No Iterations 1000
diagonal:  Solving for rho, Initial residual = 0, Final residual = 0, No Iterations 0
time step continuity errors : sum local = 1.62887e-15, global = -1.34805e-16, cumulative = 1.73248e-12
ExecutionTime = 2155.46 s  ClockTime = 2183 s

Time = 0.59875

Courant Number mean: 0.00534442 max: 0.0761972
diagonal:  Solving for rho, Initial residual = 0, Final residual = 0, No Iterations 0
PIMPLE: iteration 1
smoothSolver:  Solving for Ux, Initial residual = 0.000965787, Final residual = 3.28304e-17, No Iterations 3
smoothSolver:  Solving for Uy, Initial residual = 0.00093344, Final residual = 2.94258e-17, No Iterations 3
smoothSolver:  Solving for e, Initial residual = 0.00417708, Final residual = 4.52269e-14, No Iterations 1000
smoothSolver:  Solving for p, Initial residual = 0.00420141, Final residual = 1.1552e-13, No Iterations 1000
diagonal:  Solving for rho, Initial residual = 0, Final residual = 0, No Iterations 0
time step continuity errors : sum local = 1.66502e-15, global = 7.63734e-16, cumulative = 1.73325e-12
PIMPLE: iteration 2
smoothSolver:  Solving for Ux, Initial residual = 9.75035e-07, Final residual = 1.37634e-16, No Iterations 2
smoothSolver:  Solving for Uy, Initial residual = 2.4758e-06, Final residual = 8.1334e-17, No Iterations 2
smoothSolver:  Solving for e, Initial residual = 1.66739e-05, Final residual = 4.44213e-14, No Iterations 1000
smoothSolver:  Solving for p, Initial residual = 9.2946e-06, Final residual = 1.14359e-13, No Iterations 1000
diagonal:  Solving for rho, Initial residual = 0, Final residual = 0, No Iterations 0
time step continuity errors : sum local = 1.63269e-15, global = -1.94259e-16, cumulative = 1.73305e-12
ExecutionTime = 2156.33 s  ClockTime = 2183 s

Time = 0.599

Courant Number mean: 0.00535084 max: 0.0762111
diagonal:  Solving for rho, Initial residual = 0, Final residual = 0, No Iterations 0
PIMPLE: iteration 1
smoothSolver:  Solving for Ux, Initial residual = 0.000970011, Final residual = 3.43871e-17, No Iterations 3
smoothSolver:  Solving for Uy, Initial residual = 0.000938062, Final residual = 2.86798e-17, No Iterations 3
smoothSolver:  Solving for e, Initial residual = 0.00413437, Final residual = 4.53047e-14, No Iterations 1000
smoothSolver:  Solving for p, Initial residual = 0.0041549, Final residual = 1.14941e-13, No Iterations 1000
diagonal:  Solving for rho, Initial residual = 0, Final residual = 0, No Iterations 0
time step continuity errors : sum local = 1.66705e-15, global = 8.0558e-16, cumulative = 1.73386e-12
PIMPLE: iteration 2
smoothSolver:  Solving for Ux, Initial residual = 9.78674e-07, Final residual = 1.49678e-16, No Iterations 2
smoothSolver:  Solving for Uy, Initial residual = 2.50153e-06, Final residual = 1.11148e-16, No Iterations 2
smoothSolver:  Solving for e, Initial residual = 1.67054e-05, Final residual = 4.43517e-14, No Iterations 1000
smoothSolver:  Solving for p, Initial residual = 9.26033e-06, Final residual = 1.12637e-13, No Iterations 1000
diagonal:  Solving for rho, Initial residual = 0, Final residual = 0, No Iterations 0
time step continuity errors : sum local = 1.62266e-15, global = -1.34458e-16, cumulative = 1.73373e-12
ExecutionTime = 2157.22 s  ClockTime = 2184 s

Time = 0.59925

Courant Number mean: 0.00535739 max: 0.0762246
diagonal:  Solving for rho, Initial residual = 0, Final residual = 0, No Iterations 0
PIMPLE: iteration 1
smoothSolver:  Solving for Ux, Initial residual = 0.000974205, Final residual = 3.432e-17, No Iterations 3
smoothSolver:  Solving for Uy, Initial residual = 0.000943182, Final residual = 2.98815e-17, No Iterations 3
smoothSolver:  Solving for e, Initial residual = 0.00409242, Final residual = 4.41998e-14, No Iterations 1000
smoothSolver:  Solving for p, Initial residual = 0.00410906, Final residual = 1.12454e-13, No Iterations 1000
diagonal:  Solving for rho, Initial residual = 0, Final residual = 0, No Iterations 0
time step continuity errors : sum local = 1.64916e-15, global = 7.94426e-16, cumulative = 1.73452e-12
PIMPLE: iteration 2
smoothSolver:  Solving for Ux, Initial residual = 9.74204e-07, Final residual = 1.51194e-16, No Iterations 2
smoothSolver:  Solving for Uy, Initial residual = 2.4897e-06, Final residual = 1.11792e-16, No Iterations 2
smoothSolver:  Solving for e, Initial residual = 1.70488e-05, Final residual = 4.4062e-14, No Iterations 1000
smoothSolver:  Solving for p, Initial residual = 8.96713e-06, Final residual = 1.12193e-13, No Iterations 1000
diagonal:  Solving for rho, Initial residual = 0, Final residual = 0, No Iterations 0
time step continuity errors : sum local = 1.66002e-15, global = -1.70279e-16, cumulative = 1.73435e-12
ExecutionTime = 2158.09 s  ClockTime = 2185 s

Time = 0.5995

Courant Number mean: 0.00536404 max: 0.0762386
diagonal:  Solving for rho, Initial residual = 0, Final residual = 0, No Iterations 0
PIMPLE: iteration 1
smoothSolver:  Solving for Ux, Initial residual = 0.000978281, Final residual = 3.37842e-17, No Iterations 3
smoothSolver:  Solving for Uy, Initial residual = 0.000947841, Final residual = 2.97425e-17, No Iterations 3
smoothSolver:  Solving for e, Initial residual = 0.00405123, Final residual = 4.28847e-14, No Iterations 1000
smoothSolver:  Solving for p, Initial residual = 0.0040652, Final residual = 1.13441e-13, No Iterations 1000
diagonal:  Solving for rho, Initial residual = 0, Final residual = 0, No Iterations 0
time step continuity errors : sum local = 1.6275e-15, global = 7.34628e-16, cumulative = 1.73508e-12
PIMPLE: iteration 2
smoothSolver:  Solving for Ux, Initial residual = 9.75685e-07, Final residual = 1.58899e-16, No Iterations 2
smoothSolver:  Solving for Uy, Initial residual = 2.50695e-06, Final residual = 1.10481e-16, No Iterations 2
smoothSolver:  Solving for e, Initial residual = 1.73046e-05, Final residual = 4.24949e-14, No Iterations 1000
smoothSolver:  Solving for p, Initial residual = 8.96316e-06, Final residual = 1.11029e-13, No Iterations 1000
diagonal:  Solving for rho, Initial residual = 0, Final residual = 0, No Iterations 0
time step continuity errors : sum local = 1.61463e-15, global = -1.46257e-16, cumulative = 1.73494e-12
ExecutionTime = 2158.96 s  ClockTime = 2186 s

Time = 0.59975

Courant Number mean: 0.00537081 max: 0.0762522
diagonal:  Solving for rho, Initial residual = 0, Final residual = 0, No Iterations 0
PIMPLE: iteration 1
smoothSolver:  Solving for Ux, Initial residual = 0.000982002, Final residual = 3.4283e-17, No Iterations 3
smoothSolver:  Solving for Uy, Initial residual = 0.000952587, Final residual = 2.86032e-17, No Iterations 3
smoothSolver:  Solving for e, Initial residual = 0.00401078, Final residual = 4.33267e-14, No Iterations 1000
smoothSolver:  Solving for p, Initial residual = 0.0040204, Final residual = 1.08666e-13, No Iterations 1000
diagonal:  Solving for rho, Initial residual = 0, Final residual = 0, No Iterations 0
time step continuity errors : sum local = 1.64569e-15, global = 7.35494e-16, cumulative = 1.73567e-12
PIMPLE: iteration 2
smoothSolver:  Solving for Ux, Initial residual = 9.79711e-07, Final residual = 1.60248e-16, No Iterations 2
smoothSolver:  Solving for Uy, Initial residual = 2.51556e-06, Final residual = 1.07348e-16, No Iterations 2
smoothSolver:  Solving for e, Initial residual = 1.67153e-05, Final residual = 4.31584e-14, No Iterations 1000
smoothSolver:  Solving for p, Initial residual = 9.01492e-06, Final residual = 1.09137e-13, No Iterations 1000
diagonal:  Solving for rho, Initial residual = 0, Final residual = 0, No Iterations 0
time step continuity errors : sum local = 1.63728e-15, global = -1.03818e-16, cumulative = 1.73557e-12
ExecutionTime = 2159.83 s  ClockTime = 2187 s

Time = 0.6

Courant Number mean: 0.00537765 max: 0.0762664
diagonal:  Solving for rho, Initial residual = 0, Final residual = 0, No Iterations 0
PIMPLE: iteration 1
smoothSolver:  Solving for Ux, Initial residual = 0.000986218, Final residual = 3.17962e-17, No Iterations 3
smoothSolver:  Solving for Uy, Initial residual = 0.000957885, Final residual = 2.84971e-17, No Iterations 3
smoothSolver:  Solving for e, Initial residual = 0.00397092, Final residual = 4.28928e-14, No Iterations 1000
smoothSolver:  Solving for p, Initial residual = 0.00397796, Final residual = 1.06827e-13, No Iterations 1000
diagonal:  Solving for rho, Initial residual = 0, Final residual = 0, No Iterations 0
time step continuity errors : sum local = 1.6467e-15, global = 7.75379e-16, cumulative = 1.73635e-12
PIMPLE: iteration 2
smoothSolver:  Solving for Ux, Initial residual = 9.74826e-07, Final residual = 1.65353e-16, No Iterations 2
smoothSolver:  Solving for Uy, Initial residual = 2.49736e-06, Final residual = 1.08761e-16, No Iterations 2
smoothSolver:  Solving for e, Initial residual = 1.66313e-05, Final residual = 4.15947e-14, No Iterations 1000
smoothSolver:  Solving for p, Initial residual = 8.8053e-06, Final residual = 1.10051e-13, No Iterations 1000
diagonal:  Solving for rho, Initial residual = 0, Final residual = 0, No Iterations 0
time step continuity errors : sum local = 1.64213e-15, global = -1.70884e-16, cumulative = 1.73617e-12
ExecutionTime = 2160.71 s  ClockTime = 2188 s

writeRegisteredObject rhofunc output:
    writing object rho

    writing object phi

End

