/*---------------------------------------------------------------------------*\
| =========                 |                                                 |
| \\      /  F ield         | OpenFOAM: The Open Source CFD Toolbox           |
|  \\    /   O peration     | Version:  3.0.x                                 |
|   \\  /    A nd           | Web:      www.OpenFOAM.org                      |
|    \\/     M anipulation  |                                                 |
\*---------------------------------------------------------------------------*/
Build  : 3.0.x-4b5e129783d9
Exec   : sonicFoam
Date   : Nov 16 2016
Time   : 16:47:57
Host   : "alex-VirtualBox"
PID    : 18997
Case   : /home/alex/OpenFOAM/alex-3.0.x/run/SH1_vct0.2
nProcs : 1
sigFpe : Enabling floating point exception trapping (FOAM_SIGFPE).
fileModificationChecking : Monitoring run-time modified files using timeStampMaster
allowSystemOperations : Allowing user-supplied system call operations

// * * * * * * * * * * * * * * * * * * * * * * * * * * * * * * * * * * * * * //
Create time

Create mesh for time = 0


PIMPLE: no residual control data found. Calculations will employ 2 corrector loops

Reading thermophysical properties

Selecting thermodynamics package 
{
    type            hePsiThermo;
    mixture         pureMixture;
    transport       const;
    thermo          hConst;
    equationOfState perfectGas;
    specie          specie;
    energy          sensibleInternalEnergy;
}

Reading field U

Reading/calculating face flux field phi

Creating turbulence model

Selecting turbulence model type laminar
Creating field kinetic energy K

No MRF models present

No finite volume options present


Starting time loop

Time = 0.001

Courant Number mean: 0.04 max: 0.04
diagonal:  Solving for rho, Initial residual = 0, Final residual = 0, No Iterations 0
PIMPLE: iteration 1
smoothSolver:  Solving for Ux, Initial residual = 0.998004, Final residual = 0.231921, No Iterations 1000
smoothSolver:  Solving for e, Initial residual = 0.010989, Final residual = 0.00514595, No Iterations 1000
smoothSolver:  Solving for p, Initial residual = 1, Final residual = 1.35812e-09, No Iterations 1000
diagonal:  Solving for rho, Initial residual = 0, Final residual = 0, No Iterations 0
time step continuity errors : sum local = 1.40651e-16, global = 1.40369e-16, cumulative = 1.40369e-16
PIMPLE: iteration 2
smoothSolver:  Solving for Ux, Initial residual = 0.00140043, Final residual = 3.52556e-11, No Iterations 1000
smoothSolver:  Solving for e, Initial residual = 0.999996, Final residual = 1.95916e-08, No Iterations 1000
smoothSolver:  Solving for p, Initial residual = 0.0410986, Final residual = 3.80999e-10, No Iterations 1000
diagonal:  Solving for rho, Initial residual = 0, Final residual = 0, No Iterations 0
time step continuity errors : sum local = 2.79331e-16, global = 2.79049e-16, cumulative = 4.19418e-16
ExecutionTime = 0.18 s  ClockTime = 0 s

Time = 0.002

Courant Number mean: 0.04 max: 0.04
diagonal:  Solving for rho, Initial residual = 0, Final residual = 0, No Iterations 0
PIMPLE: iteration 1
smoothSolver:  Solving for Ux, Initial residual = 0.198274, Final residual = 2.82018e-11, No Iterations 1000
smoothSolver:  Solving for e, Initial residual = 0.213703, Final residual = 3.93497e-09, No Iterations 1000
smoothSolver:  Solving for p, Initial residual = 0.454561, Final residual = 1.24269e-09, No Iterations 1000
diagonal:  Solving for rho, Initial residual = 0, Final residual = 0, No Iterations 0
time step continuity errors : sum local = 1.41073e-16, global = 1.38821e-16, cumulative = 5.58239e-16
PIMPLE: iteration 2
smoothSolver:  Solving for Ux, Initial residual = 0.00116588, Final residual = 8.89954e-12, No Iterations 1000
smoothSolver:  Solving for e, Initial residual = 0.215783, Final residual = 1.90315e-09, No Iterations 1000
smoothSolver:  Solving for p, Initial residual = 0.0210065, Final residual = 4.08949e-10, No Iterations 1000
diagonal:  Solving for rho, Initial residual = 0, Final residual = 0, No Iterations 0
time step continuity errors : sum local = 2.25267e-18, global = 5.63167e-19, cumulative = 5.58802e-16
ExecutionTime = 0.35 s  ClockTime = 0 s

Time = 0.003

Courant Number mean: 0.04 max: 0.04
diagonal:  Solving for rho, Initial residual = 0, Final residual = 0, No Iterations 0
PIMPLE: iteration 1
smoothSolver:  Solving for Ux, Initial residual = 0.156355, Final residual = 7.4969e-12, No Iterations 1000
smoothSolver:  Solving for e, Initial residual = 0.167708, Final residual = 9.69591e-10, No Iterations 1000
smoothSolver:  Solving for p, Initial residual = 0.264909, Final residual = 6.05375e-11, No Iterations 1000
diagonal:  Solving for rho, Initial residual = 0, Final residual = 0, No Iterations 0
time step continuity errors : sum local = 2.78627e-16, global = 2.76937e-16, cumulative = 8.35739e-16
PIMPLE: iteration 2
smoothSolver:  Solving for Ux, Initial residual = 0.000937121, Final residual = 3.98127e-12, No Iterations 1000
smoothSolver:  Solving for e, Initial residual = 0.079091, Final residual = 6.00102e-10, No Iterations 1000
smoothSolver:  Solving for p, Initial residual = 0.0101689, Final residual = 1.68752e-10, No Iterations 1000
diagonal:  Solving for rho, Initial residual = 0, Final residual = 0, No Iterations 0
time step continuity errors : sum local = 2.11187e-18, global = 9.85542e-19, cumulative = 8.36725e-16
ExecutionTime = 0.52 s  ClockTime = 0 s

Time = 0.004

Courant Number mean: 0.0399999 max: 0.04
diagonal:  Solving for rho, Initial residual = 0, Final residual = 0, No Iterations 0
PIMPLE: iteration 1
smoothSolver:  Solving for Ux, Initial residual = 0.120526, Final residual = 3.49e-12, No Iterations 1000
smoothSolver:  Solving for e, Initial residual = 0.13021, Final residual = 4.24058e-10, No Iterations 1000
smoothSolver:  Solving for p, Initial residual = 0.199975, Final residual = 2.79122e-11, No Iterations 1000
diagonal:  Solving for rho, Initial residual = 0, Final residual = 0, No Iterations 0
time step continuity errors : sum local = 2.78204e-16, global = 2.75107e-16, cumulative = 1.11183e-15
PIMPLE: iteration 2
smoothSolver:  Solving for Ux, Initial residual = 0.000796107, Final residual = 2.11526e-12, No Iterations 1000
smoothSolver:  Solving for e, Initial residual = 0.0562911, Final residual = 2.89614e-10, No Iterations 1000
smoothSolver:  Solving for p, Initial residual = 0.00766174, Final residual = 8.63633e-11, No Iterations 1000
diagonal:  Solving for rho, Initial residual = 0, Final residual = 0, No Iterations 0
time step continuity errors : sum local = 3.66058e-18, global = -5.63167e-19, cumulative = 1.11127e-15
ExecutionTime = 0.69 s  ClockTime = 1 s

Time = 0.005

Courant Number mean: 0.0399998 max: 0.04
diagonal:  Solving for rho, Initial residual = 0, Final residual = 0, No Iterations 0
PIMPLE: iteration 1
smoothSolver:  Solving for Ux, Initial residual = 0.104136, Final residual = 1.90174e-12, No Iterations 1000
smoothSolver:  Solving for e, Initial residual = 0.111778, Final residual = 2.21685e-10, No Iterations 1000
smoothSolver:  Solving for p, Initial residual = 0.163792, Final residual = 1.51987e-11, No Iterations 1000
diagonal:  Solving for rho, Initial residual = 0, Final residual = 0, No Iterations 0
time step continuity errors : sum local = 2.79049e-16, global = 2.75388e-16, cumulative = 1.38666e-15
PIMPLE: iteration 2
smoothSolver:  Solving for Ux, Initial residual = 0.000693535, Final residual = 1.24364e-12, No Iterations 1000
smoothSolver:  Solving for e, Initial residual = 0.0419157, Final residual = 1.59188e-10, No Iterations 1000
smoothSolver:  Solving for p, Initial residual = 0.00593037, Final residual = 4.94664e-11, No Iterations 1000
diagonal:  Solving for rho, Initial residual = 0, Final residual = 0, No Iterations 0
time step continuity errors : sum local = 4.50533e-18, global = 1.97108e-18, cumulative = 1.38863e-15
ExecutionTime = 0.86 s  ClockTime = 1 s

Time = 0.006

Courant Number mean: 0.0399997 max: 0.04
diagonal:  Solving for rho, Initial residual = 0, Final residual = 0, No Iterations 0
PIMPLE: iteration 1
smoothSolver:  Solving for Ux, Initial residual = 0.0928674, Final residual = 1.12758e-12, No Iterations 1000
smoothSolver:  Solving for e, Initial residual = 0.0990968, Final residual = 1.27796e-10, No Iterations 1000
smoothSolver:  Solving for p, Initial residual = 0.127633, Final residual = 9.19853e-12, No Iterations 1000
diagonal:  Solving for rho, Initial residual = 0, Final residual = 0, No Iterations 0
time step continuity errors : sum local = 2.78626e-16, global = 2.72995e-16, cumulative = 1.66162e-15
PIMPLE: iteration 2
smoothSolver:  Solving for Ux, Initial residual = 0.000571706, Final residual = 8.28437e-13, No Iterations 1000
smoothSolver:  Solving for e, Initial residual = 0.0225318, Final residual = 9.64349e-11, No Iterations 1000
smoothSolver:  Solving for p, Initial residual = 0.00337639, Final residual = 3.16431e-11, No Iterations 1000
diagonal:  Solving for rho, Initial residual = 0, Final residual = 0, No Iterations 0
time step continuity errors : sum local = 3.94216e-18, global = 5.63166e-19, cumulative = 1.66219e-15
ExecutionTime = 1.02 s  ClockTime = 1 s

Time = 0.007

Courant Number mean: 0.0399995 max: 0.04
diagonal:  Solving for rho, Initial residual = 0, Final residual = 0, No Iterations 0
PIMPLE: iteration 1
smoothSolver:  Solving for Ux, Initial residual = 0.0776826, Final residual = 7.62902e-13, No Iterations 1000
smoothSolver:  Solving for e, Initial residual = 0.0838888, Final residual = 8.33682e-11, No Iterations 1000
smoothSolver:  Solving for p, Initial residual = 0.106931, Final residual = 6.15907e-12, No Iterations 1000
diagonal:  Solving for rho, Initial residual = 0, Final residual = 0, No Iterations 0
time step continuity errors : sum local = 2.77359e-16, global = 2.72854e-16, cumulative = 1.93504e-15
PIMPLE: iteration 2
smoothSolver:  Solving for Ux, Initial residual = 0.00048287, Final residual = 5.83999e-13, No Iterations 1000
smoothSolver:  Solving for e, Initial residual = 0.0186352, Final residual = 6.53986e-11, No Iterations 1000
smoothSolver:  Solving for p, Initial residual = 0.00281876, Final residual = 2.18644e-11, No Iterations 1000
diagonal:  Solving for rho, Initial residual = 0, Final residual = 0, No Iterations 0
time step continuity errors : sum local = 4.78691e-18, global = 1.6895e-18, cumulative = 1.93673e-15
ExecutionTime = 1.2 s  ClockTime = 1 s

Time = 0.008

Courant Number mean: 0.0399993 max: 0.04
diagonal:  Solving for rho, Initial residual = 0, Final residual = 0, No Iterations 0
PIMPLE: iteration 1
smoothSolver:  Solving for Ux, Initial residual = 0.0694707, Final residual = 5.40808e-13, No Iterations 1000
smoothSolver:  Solving for e, Initial residual = 0.0745678, Final residual = 5.7754e-11, No Iterations 1000
smoothSolver:  Solving for p, Initial residual = 0.0912345, Final residual = 4.50996e-12, No Iterations 1000
diagonal:  Solving for rho, Initial residual = 0, Final residual = 0, No Iterations 0
time step continuity errors : sum local = 2.77781e-16, global = 2.73558e-16, cumulative = 2.21029e-15
PIMPLE: iteration 2
smoothSolver:  Solving for Ux, Initial residual = 0.000407361, Final residual = 4.30066e-13, No Iterations 1000
smoothSolver:  Solving for e, Initial residual = 0.0136576, Final residual = 4.6312e-11, No Iterations 1000
smoothSolver:  Solving for p, Initial residual = 0.0020972, Final residual = 1.57621e-11, No Iterations 1000
diagonal:  Solving for rho, Initial residual = 0, Final residual = 0, No Iterations 0
time step continuity errors : sum local = 4.22374e-18, global = 5.63166e-19, cumulative = 2.21085e-15
ExecutionTime = 1.36 s  ClockTime = 1 s

Time = 0.009

Courant Number mean: 0.0399991 max: 0.04
diagonal:  Solving for rho, Initial residual = 0, Final residual = 0, No Iterations 0
PIMPLE: iteration 1
smoothSolver:  Solving for Ux, Initial residual = 0.0621752, Final residual = 3.98773e-13, No Iterations 1000
smoothSolver:  Solving for e, Initial residual = 0.0665588, Final residual = 4.14838e-11, No Iterations 1000
smoothSolver:  Solving for p, Initial residual = 0.0809326, Final residual = 3.34627e-12, No Iterations 1000
diagonal:  Solving for rho, Initial residual = 0, Final residual = 0, No Iterations 0
time step continuity errors : sum local = 2.77218e-16, global = 2.71587e-16, cumulative = 2.48244e-15
PIMPLE: iteration 2
smoothSolver:  Solving for Ux, Initial residual = 0.000351676, Final residual = 3.2348e-13, No Iterations 1000
smoothSolver:  Solving for e, Initial residual = 0.012015, Final residual = 3.41979e-11, No Iterations 1000
smoothSolver:  Solving for p, Initial residual = 0.00185308, Final residual = 1.17618e-11, No Iterations 1000
diagonal:  Solving for rho, Initial residual = 0, Final residual = 0, No Iterations 0
time step continuity errors : sum local = 5.35007e-18, global = 2.81583e-19, cumulative = 2.48272e-15
ExecutionTime = 1.52 s  ClockTime = 2 s

Time = 0.01

Courant Number mean: 0.0399987 max: 0.04
diagonal:  Solving for rho, Initial residual = 0, Final residual = 0, No Iterations 0
PIMPLE: iteration 1
smoothSolver:  Solving for Ux, Initial residual = 0.0575334, Final residual = 3.0468e-13, No Iterations 1000
smoothSolver:  Solving for e, Initial residual = 0.0609954, Final residual = 3.11295e-11, No Iterations 1000
smoothSolver:  Solving for p, Initial residual = 0.0706381, Final residual = 2.44369e-12, No Iterations 1000
diagonal:  Solving for rho, Initial residual = 0, Final residual = 0, No Iterations 0
time step continuity errors : sum local = 2.76373e-16, global = 2.72431e-16, cumulative = 2.75515e-15
PIMPLE: iteration 2
smoothSolver:  Solving for Ux, Initial residual = 0.000295629, Final residual = 2.53755e-13, No Iterations 1000
smoothSolver:  Solving for e, Initial residual = 0.00810457, Final residual = 2.61892e-11, No Iterations 1000
smoothSolver:  Solving for p, Initial residual = 0.00126613, Final residual = 9.10506e-12, No Iterations 1000
diagonal:  Solving for rho, Initial residual = 0, Final residual = 0, No Iterations 0
time step continuity errors : sum local = 6.05402e-18, global = 1.5487e-18, cumulative = 2.7567e-15
ExecutionTime = 1.69 s  ClockTime = 2 s

Time = 0.011

Courant Number mean: 0.0399984 max: 0.04
diagonal:  Solving for rho, Initial residual = 0, Final residual = 0, No Iterations 0
PIMPLE: iteration 1
smoothSolver:  Solving for Ux, Initial residual = 0.0516877, Final residual = 2.3824e-13, No Iterations 1000
smoothSolver:  Solving for e, Initial residual = 0.0548999, Final residual = 2.40852e-11, No Iterations 1000
smoothSolver:  Solving for p, Initial residual = 0.0634118, Final residual = 1.94047e-12, No Iterations 1000
diagonal:  Solving for rho, Initial residual = 0, Final residual = 0, No Iterations 0
time step continuity errors : sum local = 2.76232e-16, global = 2.70601e-16, cumulative = 3.0273e-15
PIMPLE: iteration 2
smoothSolver:  Solving for Ux, Initial residual = 0.00025365, Final residual = 2.0332e-13, No Iterations 1000
smoothSolver:  Solving for e, Initial residual = 0.00733885, Final residual = 2.06439e-11, No Iterations 1000
smoothSolver:  Solving for p, Initial residual = 0.00114806, Final residual = 7.27234e-12, No Iterations 1000
diagonal:  Solving for rho, Initial residual = 0, Final residual = 0, No Iterations 0
time step continuity errors : sum local = 7.32114e-18, global = 1.12633e-18, cumulative = 3.02843e-15
ExecutionTime = 1.85 s  ClockTime = 2 s

Time = 0.012

Courant Number mean: 0.0399979 max: 0.04
diagonal:  Solving for rho, Initial residual = 0, Final residual = 0, No Iterations 0
PIMPLE: iteration 1
smoothSolver:  Solving for Ux, Initial residual = 0.0479731, Final residual = 1.91448e-13, No Iterations 1000
smoothSolver:  Solving for e, Initial residual = 0.0505581, Final residual = 1.91713e-11, No Iterations 1000
smoothSolver:  Solving for p, Initial residual = 0.0574138, Final residual = 1.6032e-12, No Iterations 1000
diagonal:  Solving for rho, Initial residual = 0, Final residual = 0, No Iterations 0
time step continuity errors : sum local = 2.75387e-16, global = 2.6694e-16, cumulative = 3.29536e-15
PIMPLE: iteration 2
smoothSolver:  Solving for Ux, Initial residual = 0.000218922, Final residual = 1.66124e-13, No Iterations 1000
smoothSolver:  Solving for e, Initial residual = 0.00599454, Final residual = 1.67093e-11, No Iterations 1000
smoothSolver:  Solving for p, Initial residual = 0.000942352, Final residual = 5.80952e-12, No Iterations 1000
diagonal:  Solving for rho, Initial residual = 0, Final residual = 0, No Iterations 0
time step continuity errors : sum local = 6.3356e-18, global = -4.22373e-19, cumulative = 3.29494e-15
ExecutionTime = 2.01 s  ClockTime = 2 s

Time = 0.013

Courant Number mean: 0.0399974 max: 0.04
diagonal:  Solving for rho, Initial residual = 0, Final residual = 0, No Iterations 0
PIMPLE: iteration 1
smoothSolver:  Solving for Ux, Initial residual = 0.0445244, Final residual = 1.58073e-13, No Iterations 1000
smoothSolver:  Solving for e, Initial residual = 0.0466946, Final residual = 1.56562e-11, No Iterations 1000
smoothSolver:  Solving for p, Initial residual = 0.0530788, Final residual = 1.31478e-12, No Iterations 1000
diagonal:  Solving for rho, Initial residual = 0, Final residual = 0, No Iterations 0
time step continuity errors : sum local = 2.75668e-16, global = 2.66658e-16, cumulative = 3.5616e-15
PIMPLE: iteration 2
smoothSolver:  Solving for Ux, Initial residual = 0.000194088, Final residual = 1.35907e-13, No Iterations 1000
smoothSolver:  Solving for e, Initial residual = 0.00564301, Final residual = 1.37223e-11, No Iterations 1000
smoothSolver:  Solving for p, Initial residual = 0.00088967, Final residual = 4.83331e-12, No Iterations 1000
diagonal:  Solving for rho, Initial residual = 0, Final residual = 0, No Iterations 0
time step continuity errors : sum local = 8.02508e-18, global = 1.83028e-18, cumulative = 3.56343e-15
ExecutionTime = 2.19 s  ClockTime = 2 s

Time = 0.014

Courant Number mean: 0.0399969 max: 0.04
diagonal:  Solving for rho, Initial residual = 0, Final residual = 0, No Iterations 0
PIMPLE: iteration 1
smoothSolver:  Solving for Ux, Initial residual = 0.0421363, Final residual = 1.29604e-13, No Iterations 1000
smoothSolver:  Solving for e, Initial residual = 0.0438224, Final residual = 1.28677e-11, No Iterations 1000
smoothSolver:  Solving for p, Initial residual = 0.048575, Final residual = 1.0438e-12, No Iterations 1000
diagonal:  Solving for rho, Initial residual = 0, Final residual = 0, No Iterations 0
time step continuity errors : sum local = 2.74119e-16, global = 2.66517e-16, cumulative = 3.82995e-15
PIMPLE: iteration 2
smoothSolver:  Solving for Ux, Initial residual = 0.000169208, Final residual = 1.15719e-13, No Iterations 1000
smoothSolver:  Solving for e, Initial residual = 0.00422701, Final residual = 1.13465e-11, No Iterations 1000
smoothSolver:  Solving for p, Initial residual = 0.000670207, Final residual = 4.00679e-12, No Iterations 1000
diagonal:  Solving for rho, Initial residual = 0, Final residual = 0, No Iterations 0
time step continuity errors : sum local = 7.6027e-18, global = 1.68949e-18, cumulative = 3.83164e-15
ExecutionTime = 2.35 s  ClockTime = 3 s

Time = 0.015

Courant Number mean: 0.0399963 max: 0.04
diagonal:  Solving for rho, Initial residual = 0, Final residual = 0, No Iterations 0
PIMPLE: iteration 1
smoothSolver:  Solving for Ux, Initial residual = 0.0391127, Final residual = 1.09376e-13, No Iterations 1000
smoothSolver:  Solving for e, Initial residual = 0.0406832, Final residual = 1.06908e-11, No Iterations 1000
smoothSolver:  Solving for p, Initial residual = 0.0451275, Final residual = 9.16986e-13, No Iterations 1000
diagonal:  Solving for rho, Initial residual = 0, Final residual = 0, No Iterations 0
time step continuity errors : sum local = 2.7257e-16, global = 2.66094e-16, cumulative = 4.09773e-15
PIMPLE: iteration 2
smoothSolver:  Solving for Ux, Initial residual = 0.00015042, Final residual = 9.69151e-14, No Iterations 1000
smoothSolver:  Solving for e, Initial residual = 0.00401318, Final residual = 9.50499e-12, No Iterations 1000
smoothSolver:  Solving for p, Initial residual = 0.000637456, Final residual = 3.38816e-12, No Iterations 1000
diagonal:  Solving for rho, Initial residual = 0, Final residual = 0, No Iterations 0
time step continuity errors : sum local = 7.74348e-18, global = 7.03953e-19, cumulative = 4.09843e-15
ExecutionTime = 2.52 s  ClockTime = 3 s

Time = 0.016

Courant Number mean: 0.0399956 max: 0.04
diagonal:  Solving for rho, Initial residual = 0, Final residual = 0, No Iterations 0
PIMPLE: iteration 1
smoothSolver:  Solving for Ux, Initial residual = 0.0370093, Final residual = 9.32552e-14, No Iterations 1000
smoothSolver:  Solving for e, Initial residual = 0.0382902, Final residual = 9.08498e-12, No Iterations 1000
smoothSolver:  Solving for p, Initial residual = 0.0421125, Final residual = 7.89624e-13, No Iterations 1000
diagonal:  Solving for rho, Initial residual = 0, Final residual = 0, No Iterations 0
time step continuity errors : sum local = 2.74119e-16, global = 2.66234e-16, cumulative = 4.36467e-15
PIMPLE: iteration 2
smoothSolver:  Solving for Ux, Initial residual = 0.000134573, Final residual = 8.34932e-14, No Iterations 1000
smoothSolver:  Solving for e, Initial residual = 0.0034759, Final residual = 8.19713e-12, No Iterations 1000
smoothSolver:  Solving for p, Initial residual = 0.000553958, Final residual = 2.92676e-12, No Iterations 1000
diagonal:  Solving for rho, Initial residual = 0, Final residual = 0, No Iterations 0
time step continuity errors : sum local = 7.18031e-18, global = 1.4079e-19, cumulative = 4.36481e-15
ExecutionTime = 2.68 s  ClockTime = 3 s

Time = 0.017

Courant Number mean: 0.0399948 max: 0.04
diagonal:  Solving for rho, Initial residual = 0, Final residual = 0, No Iterations 0
PIMPLE: iteration 1
smoothSolver:  Solving for Ux, Initial residual = 0.035, Final residual = 7.95979e-14, No Iterations 1000
smoothSolver:  Solving for e, Initial residual = 0.0361008, Final residual = 7.80499e-12, No Iterations 1000
smoothSolver:  Solving for p, Initial residual = 0.0393872, Final residual = 6.95357e-13, No Iterations 1000
diagonal:  Solving for rho, Initial residual = 0, Final residual = 0, No Iterations 0
time step continuity errors : sum local = 2.75245e-16, global = 2.66516e-16, cumulative = 4.63133e-15
PIMPLE: iteration 2
smoothSolver:  Solving for Ux, Initial residual = 0.000120562, Final residual = 7.20634e-14, No Iterations 1000
smoothSolver:  Solving for e, Initial residual = 0.00301652, Final residual = 7.01758e-12, No Iterations 1000
smoothSolver:  Solving for p, Initial residual = 0.000482071, Final residual = 2.52131e-12, No Iterations 1000
diagonal:  Solving for rho, Initial residual = 0, Final residual = 0, No Iterations 0
time step continuity errors : sum local = 7.60266e-18, global = -2.53422e-18, cumulative = 4.62879e-15
ExecutionTime = 2.84 s  ClockTime = 3 s

Time = 0.018

Courant Number mean: 0.039994 max: 0.04
diagonal:  Solving for rho, Initial residual = 0, Final residual = 0, No Iterations 0
PIMPLE: iteration 1
smoothSolver:  Solving for Ux, Initial residual = 0.0331192, Final residual = 6.88266e-14, No Iterations 1000
smoothSolver:  Solving for e, Initial residual = 0.034091, Final residual = 6.70211e-12, No Iterations 1000
smoothSolver:  Solving for p, Initial residual = 0.0369236, Final residual = 6.14829e-13, No Iterations 1000
diagonal:  Solving for rho, Initial residual = 0, Final residual = 0, No Iterations 0
time step continuity errors : sum local = 2.72006e-16, global = 2.63277e-16, cumulative = 4.89207e-15
PIMPLE: iteration 2
smoothSolver:  Solving for Ux, Initial residual = 0.000108123, Final residual = 6.37961e-14, No Iterations 1000
smoothSolver:  Solving for e, Initial residual = 0.00262926, Final residual = 6.10423e-12, No Iterations 1000
smoothSolver:  Solving for p, Initial residual = 0.000421033, Final residual = 2.17836e-12, No Iterations 1000
diagonal:  Solving for rho, Initial residual = 0, Final residual = 0, No Iterations 0
time step continuity errors : sum local = 7.03949e-18, global = -2.8158e-19, cumulative = 4.89179e-15
ExecutionTime = 3.01 s  ClockTime = 4 s

Time = 0.019

Courant Number mean: 0.0399931 max: 0.04
diagonal:  Solving for rho, Initial residual = 0, Final residual = 0, No Iterations 0
PIMPLE: iteration 1
smoothSolver:  Solving for Ux, Initial residual = 0.0313804, Final residual = 6.04532e-14, No Iterations 1000
smoothSolver:  Solving for e, Initial residual = 0.0322479, Final residual = 5.82504e-12, No Iterations 1000
smoothSolver:  Solving for p, Initial residual = 0.0350133, Final residual = 5.23996e-13, No Iterations 1000
diagonal:  Solving for rho, Initial residual = 0, Final residual = 0, No Iterations 0
time step continuity errors : sum local = 2.69894e-16, global = 2.62009e-16, cumulative = 5.1538e-15
PIMPLE: iteration 2
smoothSolver:  Solving for Ux, Initial residual = 9.90882e-05, Final residual = 5.53772e-14, No Iterations 1000
smoothSolver:  Solving for e, Initial residual = 0.00257884, Final residual = 5.32172e-12, No Iterations 1000
smoothSolver:  Solving for p, Initial residual = 0.000413884, Final residual = 1.91503e-12, No Iterations 1000
diagonal:  Solving for rho, Initial residual = 0, Final residual = 0, No Iterations 0
time step continuity errors : sum local = 9.01053e-18, global = 0, cumulative = 5.1538e-15
ExecutionTime = 3.17 s  ClockTime = 4 s

Time = 0.02

Courant Number mean: 0.0399921 max: 0.04
diagonal:  Solving for rho, Initial residual = 0, Final residual = 0, No Iterations 0
PIMPLE: iteration 1
smoothSolver:  Solving for Ux, Initial residual = 0.0300986, Final residual = 5.36632e-14, No Iterations 1000
smoothSolver:  Solving for e, Initial residual = 0.0307955, Final residual = 5.16407e-12, No Iterations 1000
smoothSolver:  Solving for p, Initial residual = 0.0330079, Final residual = 4.72294e-13, No Iterations 1000
diagonal:  Solving for rho, Initial residual = 0, Final residual = 0, No Iterations 0
time step continuity errors : sum local = 2.71723e-16, global = 2.59897e-16, cumulative = 5.41369e-15
PIMPLE: iteration 2
smoothSolver:  Solving for Ux, Initial residual = 8.95448e-05, Final residual = 4.84918e-14, No Iterations 1000
smoothSolver:  Solving for e, Initial residual = 0.0021584, Final residual = 4.67068e-12, No Iterations 1000
smoothSolver:  Solving for p, Initial residual = 0.000346786, Final residual = 1.67694e-12, No Iterations 1000
diagonal:  Solving for rho, Initial residual = 0, Final residual = 0, No Iterations 0
time step continuity errors : sum local = 9.85525e-18, global = 2.81579e-19, cumulative = 5.41397e-15
ExecutionTime = 3.35 s  ClockTime = 4 s

Time = 0.021

Courant Number mean: 0.0399911 max: 0.04
diagonal:  Solving for rho, Initial residual = 0, Final residual = 0, No Iterations 0
PIMPLE: iteration 1
smoothSolver:  Solving for Ux, Initial residual = 0.0285519, Final residual = 4.73756e-14, No Iterations 1000
smoothSolver:  Solving for e, Initial residual = 0.0292269, Final residual = 4.51846e-12, No Iterations 1000
smoothSolver:  Solving for p, Initial residual = 0.031382, Final residual = 4.24077e-13, No Iterations 1000
diagonal:  Solving for rho, Initial residual = 0, Final residual = 0, No Iterations 0
time step continuity errors : sum local = 2.71582e-16, global = 2.58911e-16, cumulative = 5.67289e-15
PIMPLE: iteration 2
smoothSolver:  Solving for Ux, Initial residual = 8.22137e-05, Final residual = 4.29501e-14, No Iterations 1000
smoothSolver:  Solving for e, Initial residual = 0.00203988, Final residual = 4.13168e-12, No Iterations 1000
smoothSolver:  Solving for p, Initial residual = 0.000328643, Final residual = 1.49416e-12, No Iterations 1000
diagonal:  Solving for rho, Initial residual = 0, Final residual = 0, No Iterations 0
time step continuity errors : sum local = 9.85523e-18, global = 5.63156e-19, cumulative = 5.67345e-15
ExecutionTime = 3.52 s  ClockTime = 5 s

Time = 0.022

Courant Number mean: 0.0399899 max: 0.04
diagonal:  Solving for rho, Initial residual = 0, Final residual = 0, No Iterations 0
PIMPLE: iteration 1
smoothSolver:  Solving for Ux, Initial residual = 0.0274014, Final residual = 4.21276e-14, No Iterations 1000
smoothSolver:  Solving for e, Initial residual = 0.027966, Final residual = 4.03925e-12, No Iterations 1000
smoothSolver:  Solving for p, Initial residual = 0.029913, Final residual = 3.75497e-13, No Iterations 1000
diagonal:  Solving for rho, Initial residual = 0, Final residual = 0, No Iterations 0
time step continuity errors : sum local = 2.69469e-16, global = 2.60177e-16, cumulative = 5.93363e-15
PIMPLE: iteration 2
smoothSolver:  Solving for Ux, Initial residual = 7.58633e-05, Final residual = 3.87171e-14, No Iterations 1000
smoothSolver:  Solving for e, Initial residual = 0.00184661, Final residual = 3.72151e-12, No Iterations 1000
smoothSolver:  Solving for p, Initial residual = 0.000298151, Final residual = 1.34854e-12, No Iterations 1000
diagonal:  Solving for rho, Initial residual = 0, Final residual = 0, No Iterations 0
time step continuity errors : sum local = 1.12631e-17, global = 1.97104e-18, cumulative = 5.9356e-15
ExecutionTime = 3.68 s  ClockTime = 5 s

Time = 0.023

Courant Number mean: 0.0399887 max: 0.04
diagonal:  Solving for rho, Initial residual = 0, Final residual = 0, No Iterations 0
PIMPLE: iteration 1
smoothSolver:  Solving for Ux, Initial residual = 0.0262935, Final residual = 3.7687e-14, No Iterations 1000
smoothSolver:  Solving for e, Initial residual = 0.0267909, Final residual = 3.59374e-12, No Iterations 1000
smoothSolver:  Solving for p, Initial residual = 0.0283443, Final residual = 3.27417e-13, No Iterations 1000
diagonal:  Solving for rho, Initial residual = 0, Final residual = 0, No Iterations 0
time step continuity errors : sum local = 2.6961e-16, global = 2.5891e-16, cumulative = 6.19451e-15
PIMPLE: iteration 2
smoothSolver:  Solving for Ux, Initial residual = 6.87717e-05, Final residual = 3.49914e-14, No Iterations 1000
smoothSolver:  Solving for e, Initial residual = 0.00169845, Final residual = 3.33715e-12, No Iterations 1000
smoothSolver:  Solving for p, Initial residual = 0.000274185, Final residual = 1.2114e-12, No Iterations 1000
diagonal:  Solving for rho, Initial residual = 0, Final residual = 0, No Iterations 0
time step continuity errors : sum local = 9.85518e-18, global = -5.63153e-19, cumulative = 6.19394e-15
ExecutionTime = 3.85 s  ClockTime = 5 s

Time = 0.024

Courant Number mean: 0.0399874 max: 0.04
diagonal:  Solving for rho, Initial residual = 0, Final residual = 0, No Iterations 0
PIMPLE: iteration 1
smoothSolver:  Solving for Ux, Initial residual = 0.0250293, Final residual = 3.40323e-14, No Iterations 1000
smoothSolver:  Solving for e, Initial residual = 0.0255341, Final residual = 3.22022e-12, No Iterations 1000
smoothSolver:  Solving for p, Initial residual = 0.0272308, Final residual = 3.0799e-13, No Iterations 1000
diagonal:  Solving for rho, Initial residual = 0, Final residual = 0, No Iterations 0
time step continuity errors : sum local = 2.67919e-16, global = 2.57783e-16, cumulative = 6.45173e-15
PIMPLE: iteration 2
smoothSolver:  Solving for Ux, Initial residual = 6.43858e-05, Final residual = 3.15959e-14, No Iterations 1000
smoothSolver:  Solving for e, Initial residual = 0.00163558, Final residual = 3.00774e-12, No Iterations 1000
smoothSolver:  Solving for p, Initial residual = 0.000264713, Final residual = 1.08338e-12, No Iterations 1000
diagonal:  Solving for rho, Initial residual = 0, Final residual = 0, No Iterations 0
time step continuity errors : sum local = 9.85516e-18, global = 0, cumulative = 6.45173e-15
ExecutionTime = 4.01 s  ClockTime = 5 s

Time = 0.025

Courant Number mean: 0.039986 max: 0.04
diagonal:  Solving for rho, Initial residual = 0, Final residual = 0, No Iterations 0
PIMPLE: iteration 1
smoothSolver:  Solving for Ux, Initial residual = 0.0242641, Final residual = 3.05091e-14, No Iterations 1000
smoothSolver:  Solving for e, Initial residual = 0.0246455, Final residual = 2.9138e-12, No Iterations 1000
smoothSolver:  Solving for p, Initial residual = 0.0260773, Final residual = 2.78303e-13, No Iterations 1000
diagonal:  Solving for rho, Initial residual = 0, Final residual = 0, No Iterations 0
time step continuity errors : sum local = 2.68482e-16, global = 2.56374e-16, cumulative = 6.7081e-15
PIMPLE: iteration 2
smoothSolver:  Solving for Ux, Initial residual = 5.97966e-05, Final residual = 2.87077e-14, No Iterations 1000
smoothSolver:  Solving for e, Initial residual = 0.00138176, Final residual = 2.72152e-12, No Iterations 1000
smoothSolver:  Solving for p, Initial residual = 0.000224101, Final residual = 9.81347e-13, No Iterations 1000
diagonal:  Solving for rho, Initial residual = 0, Final residual = 0, No Iterations 0
time step continuity errors : sum local = 1.19669e-17, global = 1.26709e-18, cumulative = 6.70937e-15
ExecutionTime = 4.18 s  ClockTime = 6 s

Time = 0.026

Courant Number mean: 0.0399846 max: 0.04
diagonal:  Solving for rho, Initial residual = 0, Final residual = 0, No Iterations 0
PIMPLE: iteration 1
smoothSolver:  Solving for Ux, Initial residual = 0.0233181, Final residual = 2.76798e-14, No Iterations 1000
smoothSolver:  Solving for e, Initial residual = 0.0236835, Final residual = 2.63469e-12, No Iterations 1000
smoothSolver:  Solving for p, Initial residual = 0.02497, Final residual = 2.60162e-13, No Iterations 1000
diagonal:  Solving for rho, Initial residual = 0, Final residual = 0, No Iterations 0
time step continuity errors : sum local = 2.67073e-16, global = 2.51868e-16, cumulative = 6.96124e-15
PIMPLE: iteration 2
smoothSolver:  Solving for Ux, Initial residual = 5.53596e-05, Final residual = 2.59987e-14, No Iterations 1000
smoothSolver:  Solving for e, Initial residual = 0.00127193, Final residual = 2.47072e-12, No Iterations 1000
smoothSolver:  Solving for p, Initial residual = 0.000206079, Final residual = 9.10977e-13, No Iterations 1000
diagonal:  Solving for rho, Initial residual = 0, Final residual = 0, No Iterations 0
time step continuity errors : sum local = 1.18261e-17, global = -5.63149e-19, cumulative = 6.96067e-15
ExecutionTime = 4.35 s  ClockTime = 6 s

Time = 0.027

Courant Number mean: 0.039983 max: 0.04
diagonal:  Solving for rho, Initial residual = 0, Final residual = 0, No Iterations 0
PIMPLE: iteration 1
smoothSolver:  Solving for Ux, Initial residual = 0.0224297, Final residual = 2.54797e-14, No Iterations 1000
smoothSolver:  Solving for e, Initial residual = 0.0227751, Final residual = 2.40491e-12, No Iterations 1000
smoothSolver:  Solving for p, Initial residual = 0.0240681, Final residual = 2.41097e-13, No Iterations 1000
diagonal:  Solving for rho, Initial residual = 0, Final residual = 0, No Iterations 0
time step continuity errors : sum local = 2.68199e-16, global = 2.57217e-16, cumulative = 7.21789e-15
PIMPLE: iteration 2
smoothSolver:  Solving for Ux, Initial residual = 5.2123e-05, Final residual = 2.36522e-14, No Iterations 1000
smoothSolver:  Solving for e, Initial residual = 0.00125815, Final residual = 2.26449e-12, No Iterations 1000
smoothSolver:  Solving for p, Initial residual = 0.000204541, Final residual = 8.26879e-13, No Iterations 1000
diagonal:  Solving for rho, Initial residual = 0, Final residual = 0, No Iterations 0
time step continuity errors : sum local = 1.06998e-17, global = 2.81573e-19, cumulative = 7.21817e-15
ExecutionTime = 4.51 s  ClockTime = 6 s

Time = 0.028

Courant Number mean: 0.0399814 max: 0.04
diagonal:  Solving for rho, Initial residual = 0, Final residual = 0, No Iterations 0
PIMPLE: iteration 1
smoothSolver:  Solving for Ux, Initial residual = 0.021742, Final residual = 2.29978e-14, No Iterations 1000
smoothSolver:  Solving for e, Initial residual = 0.0220277, Final residual = 2.18908e-12, No Iterations 1000
smoothSolver:  Solving for p, Initial residual = 0.0231129, Final residual = 2.22491e-13, No Iterations 1000
diagonal:  Solving for rho, Initial residual = 0, Final residual = 0, No Iterations 0
time step continuity errors : sum local = 2.66649e-16, global = 2.53697e-16, cumulative = 7.47187e-15
PIMPLE: iteration 2
smoothSolver:  Solving for Ux, Initial residual = 4.84763e-05, Final residual = 2.158e-14, No Iterations 1000
smoothSolver:  Solving for e, Initial residual = 0.00112416, Final residual = 2.06273e-12, No Iterations 1000
smoothSolver:  Solving for p, Initial residual = 0.000182561, Final residual = 7.61724e-13, No Iterations 1000
diagonal:  Solving for rho, Initial residual = 0, Final residual = 0, No Iterations 0
time step continuity errors : sum local = 1.23892e-17, global = -2.81572e-19, cumulative = 7.47159e-15
ExecutionTime = 4.67 s  ClockTime = 6 s

Time = 0.029

Courant Number mean: 0.0399797 max: 0.04
diagonal:  Solving for rho, Initial residual = 0, Final residual = 0, No Iterations 0
PIMPLE: iteration 1
smoothSolver:  Solving for Ux, Initial residual = 0.0209338, Final residual = 2.10464e-14, No Iterations 1000
smoothSolver:  Solving for e, Initial residual = 0.0212225, Final residual = 2.01277e-12, No Iterations 1000
smoothSolver:  Solving for p, Initial residual = 0.0223078, Final residual = 2.00793e-13, No Iterations 1000
diagonal:  Solving for rho, Initial residual = 0, Final residual = 0, No Iterations 0
time step continuity errors : sum local = 2.63973e-16, global = 2.55526e-16, cumulative = 7.72711e-15
PIMPLE: iteration 2
smoothSolver:  Solving for Ux, Initial residual = 4.56491e-05, Final residual = 1.99243e-14, No Iterations 1000
smoothSolver:  Solving for e, Initial residual = 0.001067, Final residual = 1.87945e-12, No Iterations 1000
smoothSolver:  Solving for p, Initial residual = 0.000173811, Final residual = 7.0097e-13, No Iterations 1000
diagonal:  Solving for rho, Initial residual = 0, Final residual = 0, No Iterations 0
time step continuity errors : sum local = 1.12629e-17, global = 2.53414e-18, cumulative = 7.72965e-15
ExecutionTime = 4.83 s  ClockTime = 6 s

Time = 0.03

Courant Number mean: 0.0399778 max: 0.04
diagonal:  Solving for rho, Initial residual = 0, Final residual = 0, No Iterations 0
PIMPLE: iteration 1
smoothSolver:  Solving for Ux, Initial residual = 0.0203035, Final residual = 1.95968e-14, No Iterations 1000
smoothSolver:  Solving for e, Initial residual = 0.0205504, Final residual = 1.85281e-12, No Iterations 1000
smoothSolver:  Solving for p, Initial residual = 0.0215634, Final residual = 1.89504e-13, No Iterations 1000
diagonal:  Solving for rho, Initial residual = 0, Final residual = 0, No Iterations 0
time step continuity errors : sum local = 2.64395e-16, global = 2.57074e-16, cumulative = 7.98672e-15
PIMPLE: iteration 2
smoothSolver:  Solving for Ux, Initial residual = 4.31481e-05, Final residual = 1.84148e-14, No Iterations 1000
smoothSolver:  Solving for e, Initial residual = 0.00099557, Final residual = 1.74483e-12, No Iterations 1000
smoothSolver:  Solving for p, Initial residual = 0.000162413, Final residual = 6.37869e-13, No Iterations 1000
diagonal:  Solving for rho, Initial residual = 0, Final residual = 0, No Iterations 0
time step continuity errors : sum local = 1.22483e-17, global = 2.39335e-18, cumulative = 7.98911e-15
ExecutionTime = 5 s  ClockTime = 7 s

Time = 0.031

Courant Number mean: 0.0399759 max: 0.04
diagonal:  Solving for rho, Initial residual = 0, Final residual = 0, No Iterations 0
PIMPLE: iteration 1
smoothSolver:  Solving for Ux, Initial residual = 0.0196914, Final residual = 1.7919e-14, No Iterations 1000
smoothSolver:  Solving for e, Initial residual = 0.0199139, Final residual = 1.70097e-12, No Iterations 1000
smoothSolver:  Solving for p, Initial residual = 0.0208561, Final residual = 1.83783e-13, No Iterations 1000
diagonal:  Solving for rho, Initial residual = 0, Final residual = 0, No Iterations 0
time step continuity errors : sum local = 2.65098e-16, global = 2.50456e-16, cumulative = 8.23957e-15
PIMPLE: iteration 2
smoothSolver:  Solving for Ux, Initial residual = 4.08e-05, Final residual = 1.70605e-14, No Iterations 1000
smoothSolver:  Solving for e, Initial residual = 0.000926515, Final residual = 1.62244e-12, No Iterations 1000
smoothSolver:  Solving for p, Initial residual = 0.000151315, Final residual = 5.89699e-13, No Iterations 1000
diagonal:  Solving for rho, Initial residual = 0, Final residual = 0, No Iterations 0
time step continuity errors : sum local = 1.18259e-17, global = -2.81569e-19, cumulative = 8.23929e-15
ExecutionTime = 5.16 s  ClockTime = 7 s

Time = 0.032

Courant Number mean: 0.0399739 max: 0.04
diagonal:  Solving for rho, Initial residual = 0, Final residual = 0, No Iterations 0
PIMPLE: iteration 1
smoothSolver:  Solving for Ux, Initial residual = 0.0191015, Final residual = 1.67593e-14, No Iterations 1000
smoothSolver:  Solving for e, Initial residual = 0.0193086, Final residual = 1.57059e-12, No Iterations 1000
smoothSolver:  Solving for p, Initial residual = 0.0201813, Final residual = 1.67512e-13, No Iterations 1000
diagonal:  Solving for rho, Initial residual = 0, Final residual = 0, No Iterations 0
time step continuity errors : sum local = 2.6214e-16, global = 2.54538e-16, cumulative = 8.49383e-15
PIMPLE: iteration 2
smoothSolver:  Solving for Ux, Initial residual = 3.85663e-05, Final residual = 1.58838e-14, No Iterations 1000
smoothSolver:  Solving for e, Initial residual = 0.000861769, Final residual = 1.4995e-12, No Iterations 1000
smoothSolver:  Solving for p, Initial residual = 0.00014085, Final residual = 5.45947e-13, No Iterations 1000
diagonal:  Solving for rho, Initial residual = 0, Final residual = 0, No Iterations 0
time step continuity errors : sum local = 1.45008e-17, global = 2.39333e-18, cumulative = 8.49622e-15
ExecutionTime = 5.32 s  ClockTime = 7 s

Time = 0.033

Courant Number mean: 0.0399718 max: 0.04
diagonal:  Solving for rho, Initial residual = 0, Final residual = 0, No Iterations 0
PIMPLE: iteration 1
smoothSolver:  Solving for Ux, Initial residual = 0.0185346, Final residual = 1.53721e-14, No Iterations 1000
smoothSolver:  Solving for e, Initial residual = 0.0187306, Final residual = 1.46012e-12, No Iterations 1000
smoothSolver:  Solving for p, Initial residual = 0.0195374, Final residual = 1.60839e-13, No Iterations 1000
diagonal:  Solving for rho, Initial residual = 0, Final residual = 0, No Iterations 0
time step continuity errors : sum local = 2.63688e-16, global = 2.52706e-16, cumulative = 8.74893e-15
PIMPLE: iteration 2
smoothSolver:  Solving for Ux, Initial residual = 3.64237e-05, Final residual = 1.45265e-14, No Iterations 1000
smoothSolver:  Solving for e, Initial residual = 0.000803348, Final residual = 1.37996e-12, No Iterations 1000
smoothSolver:  Solving for p, Initial residual = 0.000131089, Final residual = 5.12367e-13, No Iterations 1000
diagonal:  Solving for rho, Initial residual = 0, Final residual = 0, No Iterations 0
time step continuity errors : sum local = 1.15442e-17, global = 1.40784e-18, cumulative = 8.75033e-15
ExecutionTime = 5.49 s  ClockTime = 7 s

Time = 0.034

Courant Number mean: 0.0399696 max: 0.04
diagonal:  Solving for rho, Initial residual = 0, Final residual = 0, No Iterations 0
PIMPLE: iteration 1
smoothSolver:  Solving for Ux, Initial residual = 0.017992, Final residual = 1.41823e-14, No Iterations 1000
smoothSolver:  Solving for e, Initial residual = 0.0181783, Final residual = 1.35657e-12, No Iterations 1000
smoothSolver:  Solving for p, Initial residual = 0.0189234, Final residual = 1.44538e-13, No Iterations 1000
diagonal:  Solving for rho, Initial residual = 0, Final residual = 0, No Iterations 0
time step continuity errors : sum local = 2.61997e-16, global = 2.50734e-16, cumulative = 9.00107e-15
PIMPLE: iteration 2
smoothSolver:  Solving for Ux, Initial residual = 3.43788e-05, Final residual = 1.35151e-14, No Iterations 1000
smoothSolver:  Solving for e, Initial residual = 0.000758671, Final residual = 1.2923e-12, No Iterations 1000
smoothSolver:  Solving for p, Initial residual = 0.000123875, Final residual = 4.7534e-13, No Iterations 1000
diagonal:  Solving for rho, Initial residual = 0, Final residual = 0, No Iterations 0
time step continuity errors : sum local = 1.40783e-17, global = 1.12626e-18, cumulative = 9.00219e-15
ExecutionTime = 5.65 s  ClockTime = 7 s

Time = 0.035

Courant Number mean: 0.0399674 max: 0.04
diagonal:  Solving for rho, Initial residual = 0, Final residual = 0, No Iterations 0
PIMPLE: iteration 1
smoothSolver:  Solving for Ux, Initial residual = 0.0174732, Final residual = 1.3274e-14, No Iterations 1000
smoothSolver:  Solving for e, Initial residual = 0.0176503, Final residual = 1.2596e-12, No Iterations 1000
smoothSolver:  Solving for p, Initial residual = 0.0183383, Final residual = 1.35757e-13, No Iterations 1000
diagonal:  Solving for rho, Initial residual = 0, Final residual = 0, No Iterations 0
time step continuity errors : sum local = 2.60166e-16, global = 2.47777e-16, cumulative = 9.24997e-15
PIMPLE: iteration 2
smoothSolver:  Solving for Ux, Initial residual = 3.24308e-05, Final residual = 1.28567e-14, No Iterations 1000
smoothSolver:  Solving for e, Initial residual = 0.000713681, Final residual = 1.20055e-12, No Iterations 1000
smoothSolver:  Solving for p, Initial residual = 0.000116593, Final residual = 4.47922e-13, No Iterations 1000
diagonal:  Solving for rho, Initial residual = 0, Final residual = 0, No Iterations 0
time step continuity errors : sum local = 1.39374e-17, global = 1.26704e-18, cumulative = 9.25124e-15
ExecutionTime = 5.81 s  ClockTime = 8 s

Time = 0.036

Courant Number mean: 0.039965 max: 0.04
diagonal:  Solving for rho, Initial residual = 0, Final residual = 0, No Iterations 0
PIMPLE: iteration 1
smoothSolver:  Solving for Ux, Initial residual = 0.0169776, Final residual = 1.2418e-14, No Iterations 1000
smoothSolver:  Solving for e, Initial residual = 0.0171452, Final residual = 1.17457e-12, No Iterations 1000
smoothSolver:  Solving for p, Initial residual = 0.0178489, Final residual = 1.29962e-13, No Iterations 1000
diagonal:  Solving for rho, Initial residual = 0, Final residual = 0, No Iterations 0
time step continuity errors : sum local = 2.6115e-16, global = 2.52703e-16, cumulative = 9.50394e-15
PIMPLE: iteration 2
smoothSolver:  Solving for Ux, Initial residual = 3.10363e-05, Final residual = 1.1958e-14, No Iterations 1000
smoothSolver:  Solving for e, Initial residual = 0.000708168, Final residual = 1.1298e-12, No Iterations 1000
smoothSolver:  Solving for p, Initial residual = 0.000116019, Final residual = 4.15988e-13, No Iterations 1000
diagonal:  Solving for rho, Initial residual = 0, Final residual = 0, No Iterations 0
time step continuity errors : sum local = 1.14033e-17, global = -4.22345e-19, cumulative = 9.50352e-15
ExecutionTime = 5.98 s  ClockTime = 8 s

Time = 0.037

Courant Number mean: 0.0399625 max: 0.04
diagonal:  Solving for rho, Initial residual = 0, Final residual = 0, No Iterations 0
PIMPLE: iteration 1
smoothSolver:  Solving for Ux, Initial residual = 0.0165801, Final residual = 1.16863e-14, No Iterations 1000
smoothSolver:  Solving for e, Initial residual = 0.016718, Final residual = 1.09455e-12, No Iterations 1000
smoothSolver:  Solving for p, Initial residual = 0.0173291, Final residual = 1.2088e-13, No Iterations 1000
diagonal:  Solving for rho, Initial residual = 0, Final residual = 0, No Iterations 0
time step continuity errors : sum local = 2.58896e-16, global = 2.47071e-16, cumulative = 9.75059e-15
PIMPLE: iteration 2
smoothSolver:  Solving for Ux, Initial residual = 2.94215e-05, Final residual = 1.1023e-14, No Iterations 1000
smoothSolver:  Solving for e, Initial residual = 0.000647091, Final residual = 1.04554e-12, No Iterations 1000
smoothSolver:  Solving for p, Initial residual = 0.000105823, Final residual = 3.88176e-13, No Iterations 1000
diagonal:  Solving for rho, Initial residual = 0, Final residual = 0, No Iterations 0
time step continuity errors : sum local = 1.22479e-17, global = 9.85466e-19, cumulative = 9.75158e-15
ExecutionTime = 6.14 s  ClockTime = 8 s

Time = 0.038

Courant Number mean: 0.0399599 max: 0.04
diagonal:  Solving for rho, Initial residual = 0, Final residual = 0, No Iterations 0
PIMPLE: iteration 1
smoothSolver:  Solving for Ux, Initial residual = 0.0161182, Final residual = 1.09968e-14, No Iterations 1000
smoothSolver:  Solving for e, Initial residual = 0.016259, Final residual = 1.02448e-12, No Iterations 1000
smoothSolver:  Solving for p, Initial residual = 0.0168804, Final residual = 1.19327e-13, No Iterations 1000
diagonal:  Solving for rho, Initial residual = 0, Final residual = 0, No Iterations 0
time step continuity errors : sum local = 2.60443e-16, global = 2.48899e-16, cumulative = 1.00005e-14
PIMPLE: iteration 2
smoothSolver:  Solving for Ux, Initial residual = 2.81888e-05, Final residual = 1.04226e-14, No Iterations 1000
smoothSolver:  Solving for e, Initial residual = 0.000628088, Final residual = 9.82831e-13, No Iterations 1000
smoothSolver:  Solving for p, Initial residual = 0.000103064, Final residual = 3.66775e-13, No Iterations 1000
diagonal:  Solving for rho, Initial residual = 0, Final residual = 0, No Iterations 0
time step continuity errors : sum local = 1.39372e-17, global = 1.26702e-18, cumulative = 1.00017e-14
ExecutionTime = 6.3 s  ClockTime = 8 s

Time = 0.039

Courant Number mean: 0.0399572 max: 0.04
diagonal:  Solving for rho, Initial residual = 0, Final residual = 0, No Iterations 0
PIMPLE: iteration 1
smoothSolver:  Solving for Ux, Initial residual = 0.0157456, Final residual = 1.0344e-14, No Iterations 1000
smoothSolver:  Solving for e, Initial residual = 0.0158664, Final residual = 9.60925e-13, No Iterations 1000
smoothSolver:  Solving for p, Initial residual = 0.0164596, Final residual = 1.10259e-13, No Iterations 1000
diagonal:  Solving for rho, Initial residual = 0, Final residual = 0, No Iterations 0
time step continuity errors : sum local = 2.58471e-16, global = 2.44675e-16, cumulative = 1.02464e-14
PIMPLE: iteration 2
smoothSolver:  Solving for Ux, Initial residual = 2.70956e-05, Final residual = 9.78387e-15, No Iterations 1000
smoothSolver:  Solving for e, Initial residual = 0.000597622, Final residual = 9.17739e-13, No Iterations 1000
smoothSolver:  Solving for p, Initial residual = 9.81866e-05, Final residual = 3.42578e-13, No Iterations 1000
diagonal:  Solving for rho, Initial residual = 0, Final residual = 0, No Iterations 0
time step continuity errors : sum local = 1.37964e-17, global = 1.12624e-18, cumulative = 1.02475e-14
ExecutionTime = 6.47 s  ClockTime = 8 s

Time = 0.04

Courant Number mean: 0.0399544 max: 0.04
diagonal:  Solving for rho, Initial residual = 0, Final residual = 0, No Iterations 0
PIMPLE: iteration 1
smoothSolver:  Solving for Ux, Initial residual = 0.015381, Final residual = 9.65548e-15, No Iterations 1000
smoothSolver:  Solving for e, Initial residual = 0.0154911, Final residual = 8.9845e-13, No Iterations 1000
smoothSolver:  Solving for p, Initial residual = 0.0160024, Final residual = 1.00466e-13, No Iterations 1000
diagonal:  Solving for rho, Initial residual = 0, Final residual = 0, No Iterations 0
time step continuity errors : sum local = 2.60018e-16, global = 2.43969e-16, cumulative = 1.04915e-14
PIMPLE: iteration 2
smoothSolver:  Solving for Ux, Initial residual = 2.57114e-05, Final residual = 9.29343e-15, No Iterations 1000
smoothSolver:  Solving for e, Initial residual = 0.000574083, Final residual = 8.67074e-13, No Iterations 1000
smoothSolver:  Solving for p, Initial residual = 9.40798e-05, Final residual = 3.208e-13, No Iterations 1000
diagonal:  Solving for rho, Initial residual = 0, Final residual = 0, No Iterations 0
time step continuity errors : sum local = 1.35148e-17, global = 0, cumulative = 1.04915e-14
ExecutionTime = 6.63 s  ClockTime = 8 s

Time = 0.041

Courant Number mean: 0.0399516 max: 0.04
diagonal:  Solving for rho, Initial residual = 0, Final residual = 0, No Iterations 0
PIMPLE: iteration 1
smoothSolver:  Solving for Ux, Initial residual = 0.0149674, Final residual = 9.18774e-15, No Iterations 1000
smoothSolver:  Solving for e, Initial residual = 0.0150873, Final residual = 8.55563e-13, No Iterations 1000
smoothSolver:  Solving for p, Initial residual = 0.0156027, Final residual = 9.77915e-14, No Iterations 1000
diagonal:  Solving for rho, Initial residual = 0, Final residual = 0, No Iterations 0
time step continuity errors : sum local = 2.58327e-16, global = 2.42279e-16, cumulative = 1.07338e-14
PIMPLE: iteration 2
smoothSolver:  Solving for Ux, Initial residual = 2.46064e-05, Final residual = 8.84973e-15, No Iterations 1000
smoothSolver:  Solving for e, Initial residual = 0.00052786, Final residual = 8.17712e-13, No Iterations 1000
smoothSolver:  Solving for p, Initial residual = 8.67378e-05, Final residual = 3.00889e-13, No Iterations 1000
diagonal:  Solving for rho, Initial residual = 0, Final residual = 0, No Iterations 0
time step continuity errors : sum local = 1.35147e-17, global = 2.25245e-18, cumulative = 1.0736e-14
ExecutionTime = 6.8 s  ClockTime = 9 s

Time = 0.042

Courant Number mean: 0.0399486 max: 0.04
diagonal:  Solving for rho, Initial residual = 0, Final residual = 0, No Iterations 0
PIMPLE: iteration 1
smoothSolver:  Solving for Ux, Initial residual = 0.0146307, Final residual = 8.45479e-15, No Iterations 1000
smoothSolver:  Solving for e, Initial residual = 0.0147371, Final residual = 8.02614e-13, No Iterations 1000
smoothSolver:  Solving for p, Initial residual = 0.0152269, Final residual = 9.42034e-14, No Iterations 1000
diagonal:  Solving for rho, Initial residual = 0, Final residual = 0, No Iterations 0
time step continuity errors : sum local = 2.56777e-16, global = 2.41855e-16, cumulative = 1.09779e-14
PIMPLE: iteration 2
smoothSolver:  Solving for Ux, Initial residual = 2.36057e-05, Final residual = 8.21823e-15, No Iterations 1000
smoothSolver:  Solving for e, Initial residual = 0.000502408, Final residual = 7.78065e-13, No Iterations 1000
smoothSolver:  Solving for p, Initial residual = 8.26145e-05, Final residual = 2.89106e-13, No Iterations 1000
diagonal:  Solving for rho, Initial residual = 0, Final residual = 0, No Iterations 0
time step continuity errors : sum local = 1.73156e-17, global = -1.40777e-19, cumulative = 1.09778e-14
ExecutionTime = 6.96 s  ClockTime = 9 s

Time = 0.043

Courant Number mean: 0.0399455 max: 0.04
diagonal:  Solving for rho, Initial residual = 0, Final residual = 0, No Iterations 0
PIMPLE: iteration 1
smoothSolver:  Solving for Ux, Initial residual = 0.0143034, Final residual = 8.03349e-15, No Iterations 1000
smoothSolver:  Solving for e, Initial residual = 0.0144012, Final residual = 7.61265e-13, No Iterations 1000
smoothSolver:  Solving for p, Initial residual = 0.0148658, Final residual = 8.6746e-14, No Iterations 1000
diagonal:  Solving for rho, Initial residual = 0, Final residual = 0, No Iterations 0
time step continuity errors : sum local = 2.56072e-16, global = 2.41713e-16, cumulative = 1.12195e-14
PIMPLE: iteration 2
smoothSolver:  Solving for Ux, Initial residual = 2.26579e-05, Final residual = 7.71227e-15, No Iterations 1000
smoothSolver:  Solving for e, Initial residual = 0.000477292, Final residual = 7.27648e-13, No Iterations 1000
smoothSolver:  Solving for p, Initial residual = 7.853e-05, Final residual = 2.72365e-13, No Iterations 1000
diagonal:  Solving for rho, Initial residual = 0, Final residual = 0, No Iterations 0
time step continuity errors : sum local = 1.60485e-17, global = -5.63105e-19, cumulative = 1.12189e-14
ExecutionTime = 7.12 s  ClockTime = 9 s

Time = 0.044

Courant Number mean: 0.0399423 max: 0.04
diagonal:  Solving for rho, Initial residual = 0, Final residual = 0, No Iterations 0
PIMPLE: iteration 1
smoothSolver:  Solving for Ux, Initial residual = 0.0139861, Final residual = 7.72997e-15, No Iterations 1000
smoothSolver:  Solving for e, Initial residual = 0.0140781, Final residual = 7.18261e-13, No Iterations 1000
smoothSolver:  Solving for p, Initial residual = 0.0145177, Final residual = 8.74559e-14, No Iterations 1000
diagonal:  Solving for rho, Initial residual = 0, Final residual = 0, No Iterations 0
time step continuity errors : sum local = 2.55929e-16, global = 2.41289e-16, cumulative = 1.14602e-14
PIMPLE: iteration 2
smoothSolver:  Solving for Ux, Initial residual = 2.17484e-05, Final residual = 7.37196e-15, No Iterations 1000
smoothSolver:  Solving for e, Initial residual = 0.000453186, Final residual = 6.88028e-13, No Iterations 1000
smoothSolver:  Solving for p, Initial residual = 7.45991e-05, Final residual = 2.59049e-13, No Iterations 1000
diagonal:  Solving for rho, Initial residual = 0, Final residual = 0, No Iterations 0
time step continuity errors : sum local = 1.3796e-17, global = -1.40775e-18, cumulative = 1.14588e-14
ExecutionTime = 7.29 s  ClockTime = 9 s

Time = 0.045

Courant Number mean: 0.039939 max: 0.04
diagonal:  Solving for rho, Initial residual = 0, Final residual = 0, No Iterations 0
PIMPLE: iteration 1
smoothSolver:  Solving for Ux, Initial residual = 0.0136787, Final residual = 7.16766e-15, No Iterations 1000
smoothSolver:  Solving for e, Initial residual = 0.0137664, Final residual = 6.82401e-13, No Iterations 1000
smoothSolver:  Solving for p, Initial residual = 0.014182, Final residual = 8.36248e-14, No Iterations 1000
diagonal:  Solving for rho, Initial residual = 0, Final residual = 0, No Iterations 0
time step continuity errors : sum local = 2.57195e-16, global = 2.43399e-16, cumulative = 1.17022e-14
PIMPLE: iteration 2
smoothSolver:  Solving for Ux, Initial residual = 2.08738e-05, Final residual = 6.92587e-15, No Iterations 1000
smoothSolver:  Solving for e, Initial residual = 0.000433853, Final residual = 6.55626e-13, No Iterations 1000
smoothSolver:  Solving for p, Initial residual = 7.12606e-05, Final residual = 2.44093e-13, No Iterations 1000
diagonal:  Solving for rho, Initial residual = 0, Final residual = 0, No Iterations 0
time step continuity errors : sum local = 1.50629e-17, global = 2.39316e-18, cumulative = 1.17046e-14
ExecutionTime = 7.45 s  ClockTime = 10 s

Time = 0.046

Courant Number mean: 0.0399356 max: 0.04
diagonal:  Solving for rho, Initial residual = 0, Final residual = 0, No Iterations 0
PIMPLE: iteration 1
smoothSolver:  Solving for Ux, Initial residual = 0.0133818, Final residual = 6.83031e-15, No Iterations 1000
smoothSolver:  Solving for e, Initial residual = 0.0134658, Final residual = 6.4146e-13, No Iterations 1000
smoothSolver:  Solving for p, Initial residual = 0.0138956, Final residual = 7.63867e-14, No Iterations 1000
diagonal:  Solving for rho, Initial residual = 0, Final residual = 0, No Iterations 0
time step continuity errors : sum local = 2.55081e-16, global = 2.39315e-16, cumulative = 1.19439e-14
PIMPLE: iteration 2
smoothSolver:  Solving for Ux, Initial residual = 2.02663e-05, Final residual = 6.5977e-15, No Iterations 1000
smoothSolver:  Solving for e, Initial residual = 0.000441434, Final residual = 6.16051e-13, No Iterations 1000
smoothSolver:  Solving for p, Initial residual = 7.27745e-05, Final residual = 2.33325e-13, No Iterations 1000
diagonal:  Solving for rho, Initial residual = 0, Final residual = 0, No Iterations 0
time step continuity errors : sum local = 1.59074e-17, global = 2.39315e-18, cumulative = 1.19463e-14
ExecutionTime = 7.62 s  ClockTime = 10 s

Time = 0.047

Courant Number mean: 0.039932 max: 0.04
diagonal:  Solving for rho, Initial residual = 0, Final residual = 0, No Iterations 0
PIMPLE: iteration 1
smoothSolver:  Solving for Ux, Initial residual = 0.0131373, Final residual = 6.49139e-15, No Iterations 1000
smoothSolver:  Solving for e, Initial residual = 0.0132067, Final residual = 6.12045e-13, No Iterations 1000
smoothSolver:  Solving for p, Initial residual = 0.0135898, Final residual = 7.52912e-14, No Iterations 1000
diagonal:  Solving for rho, Initial residual = 0, Final residual = 0, No Iterations 0
time step continuity errors : sum local = 2.53672e-16, global = 2.41002e-16, cumulative = 1.21873e-14
PIMPLE: iteration 2
smoothSolver:  Solving for Ux, Initial residual = 1.95144e-05, Final residual = 6.21819e-15, No Iterations 1000
smoothSolver:  Solving for e, Initial residual = 0.000408106, Final residual = 5.88888e-13, No Iterations 1000
smoothSolver:  Solving for p, Initial residual = 6.71005e-05, Final residual = 2.17044e-13, No Iterations 1000
diagonal:  Solving for rho, Initial residual = 0, Final residual = 0, No Iterations 0
time step continuity errors : sum local = 1.53442e-17, global = 5.20858e-18, cumulative = 1.21925e-14
ExecutionTime = 7.79 s  ClockTime = 10 s

Time = 0.048

Courant Number mean: 0.0399284 max: 0.04
diagonal:  Solving for rho, Initial residual = 0, Final residual = 0, No Iterations 0
PIMPLE: iteration 1
smoothSolver:  Solving for Ux, Initial residual = 0.0128552, Final residual = 6.19727e-15, No Iterations 1000
smoothSolver:  Solving for e, Initial residual = 0.0129284, Final residual = 5.78858e-13, No Iterations 1000
smoothSolver:  Solving for p, Initial residual = 0.013287, Final residual = 7.09779e-14, No Iterations 1000
diagonal:  Solving for rho, Initial residual = 0, Final residual = 0, No Iterations 0
time step continuity errors : sum local = 2.53811e-16, global = 2.37763e-16, cumulative = 1.24303e-14
PIMPLE: iteration 2
smoothSolver:  Solving for Ux, Initial residual = 1.87313e-05, Final residual = 5.99164e-15, No Iterations 1000
smoothSolver:  Solving for e, Initial residual = 0.0003932, Final residual = 5.60058e-13, No Iterations 1000
smoothSolver:  Solving for p, Initial residual = 6.46817e-05, Final residual = 2.08515e-13, No Iterations 1000
diagonal:  Solving for rho, Initial residual = 0, Final residual = 0, No Iterations 0
time step continuity errors : sum local = 1.64703e-17, global = 2.11157e-18, cumulative = 1.24324e-14
ExecutionTime = 7.95 s  ClockTime = 10 s

Time = 0.049

Courant Number mean: 0.0399247 max: 0.04
diagonal:  Solving for rho, Initial residual = 0, Final residual = 0, No Iterations 0
PIMPLE: iteration 1
smoothSolver:  Solving for Ux, Initial residual = 0.0125833, Final residual = 5.85385e-15, No Iterations 1000
smoothSolver:  Solving for e, Initial residual = 0.0126575, Final residual = 5.50885e-13, No Iterations 1000
smoothSolver:  Solving for p, Initial residual = 0.0130257, Final residual = 6.70638e-14, No Iterations 1000
diagonal:  Solving for rho, Initial residual = 0, Final residual = 0, No Iterations 0
time step continuity errors : sum local = 2.51838e-16, global = 2.37198e-16, cumulative = 1.26696e-14
PIMPLE: iteration 2
smoothSolver:  Solving for Ux, Initial residual = 1.81558e-05, Final residual = 5.62191e-15, No Iterations 1000
smoothSolver:  Solving for e, Initial residual = 0.000382421, Final residual = 5.25636e-13, No Iterations 1000
smoothSolver:  Solving for p, Initial residual = 6.31008e-05, Final residual = 2.00686e-13, No Iterations 1000
diagonal:  Solving for rho, Initial residual = 0, Final residual = 0, No Iterations 0
time step continuity errors : sum local = 1.68924e-17, global = 1.4077e-18, cumulative = 1.2671e-14
ExecutionTime = 8.12 s  ClockTime = 10 s

Time = 0.05

Courant Number mean: 0.0399208 max: 0.04
diagonal:  Solving for rho, Initial residual = 0, Final residual = 0, No Iterations 0
PIMPLE: iteration 1
smoothSolver:  Solving for Ux, Initial residual = 0.0123583, Final residual = 5.54288e-15, No Iterations 1000
smoothSolver:  Solving for e, Initial residual = 0.0124214, Final residual = 5.27316e-13, No Iterations 1000
smoothSolver:  Solving for p, Initial residual = 0.0127478, Final residual = 6.33087e-14, No Iterations 1000
diagonal:  Solving for rho, Initial residual = 0, Final residual = 0, No Iterations 0
time step continuity errors : sum local = 2.54511e-16, global = 2.38182e-16, cumulative = 1.29092e-14
PIMPLE: iteration 2
smoothSolver:  Solving for Ux, Initial residual = 1.74572e-05, Final residual = 5.35382e-15, No Iterations 1000
smoothSolver:  Solving for e, Initial residual = 0.000364057, Final residual = 5.07645e-13, No Iterations 1000
smoothSolver:  Solving for p, Initial residual = 5.99299e-05, Final residual = 1.92429e-13, No Iterations 1000
diagonal:  Solving for rho, Initial residual = 0, Final residual = 0, No Iterations 0
time step continuity errors : sum local = 1.78777e-17, global = 2.39308e-18, cumulative = 1.29116e-14
ExecutionTime = 8.29 s  ClockTime = 11 s

writeRegisteredObject rhofunc output:
    writing object rho

Time = 0.051

Courant Number mean: 0.0399168 max: 0.04
diagonal:  Solving for rho, Initial residual = 0, Final residual = 0, No Iterations 0
PIMPLE: iteration 1
smoothSolver:  Solving for Ux, Initial residual = 0.0121018, Final residual = 5.32142e-15, No Iterations 1000
smoothSolver:  Solving for e, Initial residual = 0.0121686, Final residual = 4.99276e-13, No Iterations 1000
smoothSolver:  Solving for p, Initial residual = 0.0125025, Final residual = 6.08349e-14, No Iterations 1000
diagonal:  Solving for rho, Initial residual = 0, Final residual = 0, No Iterations 0
time step continuity errors : sum local = 2.53101e-16, global = 2.38461e-16, cumulative = 1.315e-14
PIMPLE: iteration 2
smoothSolver:  Solving for Ux, Initial residual = 1.69166e-05, Final residual = 5.14064e-15, No Iterations 1000
smoothSolver:  Solving for e, Initial residual = 0.000349519, Final residual = 4.77991e-13, No Iterations 1000
smoothSolver:  Solving for p, Initial residual = 5.77047e-05, Final residual = 1.79672e-13, No Iterations 1000
diagonal:  Solving for rho, Initial residual = 0, Final residual = 0, No Iterations 0
time step continuity errors : sum local = 1.84406e-17, global = 7.03841e-19, cumulative = 1.31507e-14
ExecutionTime = 8.46 s  ClockTime = 11 s

Time = 0.052

Courant Number mean: 0.0399128 max: 0.04
diagonal:  Solving for rho, Initial residual = 0, Final residual = 0, No Iterations 0
PIMPLE: iteration 1
smoothSolver:  Solving for Ux, Initial residual = 0.0118886, Final residual = 5.06024e-15, No Iterations 1000
smoothSolver:  Solving for e, Initial residual = 0.0119466, Final residual = 4.7722e-13, No Iterations 1000
smoothSolver:  Solving for p, Initial residual = 0.012242, Final residual = 6.0194e-14, No Iterations 1000
diagonal:  Solving for rho, Initial residual = 0, Final residual = 0, No Iterations 0
time step continuity errors : sum local = 2.54929e-16, global = 2.37192e-16, cumulative = 1.33879e-14
PIMPLE: iteration 2
smoothSolver:  Solving for Ux, Initial residual = 1.62639e-05, Final residual = 4.94993e-15, No Iterations 1000
smoothSolver:  Solving for e, Initial residual = 0.000337791, Final residual = 4.60017e-13, No Iterations 1000
smoothSolver:  Solving for p, Initial residual = 5.56367e-05, Final residual = 1.7446e-13, No Iterations 1000
diagonal:  Solving for rho, Initial residual = 0, Final residual = 0, No Iterations 0
time step continuity errors : sum local = 1.82997e-17, global = 2.81534e-19, cumulative = 1.33882e-14
ExecutionTime = 8.64 s  ClockTime = 11 s

Time = 0.053

Courant Number mean: 0.0399086 max: 0.04
diagonal:  Solving for rho, Initial residual = 0, Final residual = 0, No Iterations 0
PIMPLE: iteration 1
smoothSolver:  Solving for Ux, Initial residual = 0.0116474, Final residual = 4.79639e-15, No Iterations 1000
smoothSolver:  Solving for e, Initial residual = 0.0117093, Final residual = 4.5654e-13, No Iterations 1000
smoothSolver:  Solving for p, Initial residual = 0.0120112, Final residual = 5.73857e-14, No Iterations 1000
diagonal:  Solving for rho, Initial residual = 0, Final residual = 0, No Iterations 0
time step continuity errors : sum local = 2.51408e-16, global = 2.36205e-16, cumulative = 1.36244e-14
PIMPLE: iteration 2
smoothSolver:  Solving for Ux, Initial residual = 1.57568e-05, Final residual = 4.69766e-15, No Iterations 1000
smoothSolver:  Solving for e, Initial residual = 0.000319649, Final residual = 4.3843e-13, No Iterations 1000
smoothSolver:  Solving for p, Initial residual = 5.27921e-05, Final residual = 1.65673e-13, No Iterations 1000
diagonal:  Solving for rho, Initial residual = 0, Final residual = 0, No Iterations 0
time step continuity errors : sum local = 1.91442e-17, global = 3.37838e-18, cumulative = 1.36278e-14
ExecutionTime = 8.8 s  ClockTime = 11 s

Time = 0.054

Courant Number mean: 0.0399043 max: 0.04
diagonal:  Solving for rho, Initial residual = 0, Final residual = 0, No Iterations 0
PIMPLE: iteration 1
smoothSolver:  Solving for Ux, Initial residual = 0.0114462, Final residual = 4.59157e-15, No Iterations 1000
smoothSolver:  Solving for e, Initial residual = 0.0115001, Final residual = 4.31103e-13, No Iterations 1000
smoothSolver:  Solving for p, Initial residual = 0.0117926, Final residual = 5.41018e-14, No Iterations 1000
diagonal:  Solving for rho, Initial residual = 0, Final residual = 0, No Iterations 0
time step continuity errors : sum local = 2.50983e-16, global = 2.37188e-16, cumulative = 1.3865e-14
PIMPLE: iteration 2
smoothSolver:  Solving for Ux, Initial residual = 1.53056e-05, Final residual = 4.4657e-15, No Iterations 1000
smoothSolver:  Solving for e, Initial residual = 0.000308715, Final residual = 4.18447e-13, No Iterations 1000
smoothSolver:  Solving for p, Initial residual = 5.10253e-05, Final residual = 1.57853e-13, No Iterations 1000
diagonal:  Solving for rho, Initial residual = 0, Final residual = 0, No Iterations 0
time step continuity errors : sum local = 1.74548e-17, global = 1.97071e-18, cumulative = 1.38669e-14
ExecutionTime = 8.97 s  ClockTime = 11 s

Time = 0.055

Courant Number mean: 0.0398999 max: 0.04
diagonal:  Solving for rho, Initial residual = 0, Final residual = 0, No Iterations 0
PIMPLE: iteration 1
smoothSolver:  Solving for Ux, Initial residual = 0.0112493, Final residual = 4.47731e-15, No Iterations 1000
smoothSolver:  Solving for e, Initial residual = 0.0112985, Final residual = 4.15633e-13, No Iterations 1000
smoothSolver:  Solving for p, Initial residual = 0.0115806, Final residual = 5.21337e-14, No Iterations 1000
diagonal:  Solving for rho, Initial residual = 0, Final residual = 0, No Iterations 0
time step continuity errors : sum local = 2.49855e-16, global = 2.31556e-16, cumulative = 1.40985e-14
PIMPLE: iteration 2
smoothSolver:  Solving for Ux, Initial residual = 1.48774e-05, Final residual = 4.31613e-15, No Iterations 1000
smoothSolver:  Solving for e, Initial residual = 0.000297469, Final residual = 4.03153e-13, No Iterations 1000
smoothSolver:  Solving for p, Initial residual = 4.91975e-05, Final residual = 1.51293e-13, No Iterations 1000
diagonal:  Solving for rho, Initial residual = 0, Final residual = 0, No Iterations 0
time step continuity errors : sum local = 1.90031e-17, global = 1.82992e-18, cumulative = 1.41003e-14
ExecutionTime = 9.13 s  ClockTime = 11 s

Time = 0.056

Courant Number mean: 0.0398953 max: 0.04
diagonal:  Solving for rho, Initial residual = 0, Final residual = 0, No Iterations 0
PIMPLE: iteration 1
smoothSolver:  Solving for Ux, Initial residual = 0.0110566, Final residual = 4.22226e-15, No Iterations 1000
smoothSolver:  Solving for e, Initial residual = 0.0111033, Final residual = 3.99954e-13, No Iterations 1000
smoothSolver:  Solving for p, Initial residual = 0.0113745, Final residual = 4.99456e-14, No Iterations 1000
diagonal:  Solving for rho, Initial residual = 0, Final residual = 0, No Iterations 0
time step continuity errors : sum local = 2.48445e-16, global = 2.3634e-16, cumulative = 1.43367e-14
PIMPLE: iteration 2
smoothSolver:  Solving for Ux, Initial residual = 1.44599e-05, Final residual = 4.11105e-15, No Iterations 1000
smoothSolver:  Solving for e, Initial residual = 0.000286254, Final residual = 3.81434e-13, No Iterations 1000
smoothSolver:  Solving for p, Initial residual = 4.73635e-05, Final residual = 1.45458e-13, No Iterations 1000
diagonal:  Solving for rho, Initial residual = 0, Final residual = 0, No Iterations 0
time step continuity errors : sum local = 1.85806e-17, global = 8.44573e-19, cumulative = 1.43375e-14
ExecutionTime = 9.31 s  ClockTime = 12 s

Time = 0.057

Courant Number mean: 0.0398907 max: 0.04
diagonal:  Solving for rho, Initial residual = 0, Final residual = 0, No Iterations 0
PIMPLE: iteration 1
smoothSolver:  Solving for Ux, Initial residual = 0.0108686, Final residual = 4.02257e-15, No Iterations 1000
smoothSolver:  Solving for e, Initial residual = 0.0109137, Final residual = 3.79381e-13, No Iterations 1000
smoothSolver:  Solving for p, Initial residual = 0.0111512, Final residual = 4.57635e-14, No Iterations 1000
diagonal:  Solving for rho, Initial residual = 0, Final residual = 0, No Iterations 0
time step continuity errors : sum local = 2.47176e-16, global = 2.35634e-16, cumulative = 1.45731e-14
PIMPLE: iteration 2
smoothSolver:  Solving for Ux, Initial residual = 1.39153e-05, Final residual = 3.93587e-15, No Iterations 1000
smoothSolver:  Solving for e, Initial residual = 0.000288854, Final residual = 3.69419e-13, No Iterations 1000
smoothSolver:  Solving for p, Initial residual = 4.76575e-05, Final residual = 1.39359e-13, No Iterations 1000
diagonal:  Solving for rho, Initial residual = 0, Final residual = 0, No Iterations 0
time step continuity errors : sum local = 2.04103e-17, global = 1.40761e-19, cumulative = 1.45733e-14
ExecutionTime = 9.47 s  ClockTime = 12 s

Time = 0.058

Courant Number mean: 0.0398859 max: 0.04
diagonal:  Solving for rho, Initial residual = 0, Final residual = 0, No Iterations 0
PIMPLE: iteration 1
smoothSolver:  Solving for Ux, Initial residual = 0.0106592, Final residual = 3.82626e-15, No Iterations 1000
smoothSolver:  Solving for e, Initial residual = 0.0107103, Final residual = 3.66301e-13, No Iterations 1000
smoothSolver:  Solving for p, Initial residual = 0.0109513, Final residual = 4.78532e-14, No Iterations 1000
diagonal:  Solving for rho, Initial residual = 0, Final residual = 0, No Iterations 0
time step continuity errors : sum local = 2.47033e-16, global = 2.32676e-16, cumulative = 1.4806e-14
PIMPLE: iteration 2
smoothSolver:  Solving for Ux, Initial residual = 1.34716e-05, Final residual = 3.7847e-15, No Iterations 1000
smoothSolver:  Solving for e, Initial residual = 0.00026081, Final residual = 3.54499e-13, No Iterations 1000
smoothSolver:  Solving for p, Initial residual = 4.3108e-05, Final residual = 1.33858e-13, No Iterations 1000
diagonal:  Solving for rho, Initial residual = 0, Final residual = 0, No Iterations 0
time step continuity errors : sum local = 1.94248e-17, global = 2.81519e-19, cumulative = 1.48062e-14
ExecutionTime = 9.63 s  ClockTime = 12 s

Time = 0.059

Courant Number mean: 0.039881 max: 0.04
diagonal:  Solving for rho, Initial residual = 0, Final residual = 0, No Iterations 0
PIMPLE: iteration 1
smoothSolver:  Solving for Ux, Initial residual = 0.010483, Final residual = 3.70554e-15, No Iterations 1000
smoothSolver:  Solving for e, Initial residual = 0.010529, Final residual = 3.51076e-13, No Iterations 1000
smoothSolver:  Solving for p, Initial residual = 0.0107613, Final residual = 4.52929e-14, No Iterations 1000
diagonal:  Solving for rho, Initial residual = 0, Final residual = 0, No Iterations 0
time step continuity errors : sum local = 2.47734e-16, global = 2.2831e-16, cumulative = 1.50345e-14
PIMPLE: iteration 2
smoothSolver:  Solving for Ux, Initial residual = 1.30706e-05, Final residual = 3.61577e-15, No Iterations 1000
smoothSolver:  Solving for e, Initial residual = 0.000251857, Final residual = 3.38881e-13, No Iterations 1000
smoothSolver:  Solving for p, Initial residual = 4.16586e-05, Final residual = 1.29102e-13, No Iterations 1000
diagonal:  Solving for rho, Initial residual = 0, Final residual = 0, No Iterations 0
time step continuity errors : sum local = 2.05507e-17, global = 3.09668e-18, cumulative = 1.50376e-14
ExecutionTime = 9.81 s  ClockTime = 12 s

Time = 0.06

Courant Number mean: 0.039876 max: 0.04
diagonal:  Solving for rho, Initial residual = 0, Final residual = 0, No Iterations 0
PIMPLE: iteration 1
smoothSolver:  Solving for Ux, Initial residual = 0.0103111, Final residual = 3.58577e-15, No Iterations 1000
smoothSolver:  Solving for e, Initial residual = 0.0103535, Final residual = 3.36168e-13, No Iterations 1000
smoothSolver:  Solving for p, Initial residual = 0.0105972, Final residual = 4.32721e-14, No Iterations 1000
diagonal:  Solving for rho, Initial residual = 0, Final residual = 0, No Iterations 0
time step continuity errors : sum local = 2.47873e-16, global = 2.29293e-16, cumulative = 1.52669e-14
PIMPLE: iteration 2
smoothSolver:  Solving for Ux, Initial residual = 1.28091e-05, Final residual = 3.51088e-15, No Iterations 1000
smoothSolver:  Solving for e, Initial residual = 0.00026045, Final residual = 3.25829e-13, No Iterations 1000
smoothSolver:  Solving for p, Initial residual = 4.31339e-05, Final residual = 1.22773e-13, No Iterations 1000
diagonal:  Solving for rho, Initial residual = 0, Final residual = 0, No Iterations 0
time step continuity errors : sum local = 1.85799e-17, global = -8.44541e-19, cumulative = 1.52661e-14
ExecutionTime = 9.98 s  ClockTime = 12 s

Time = 0.061

Courant Number mean: 0.0398709 max: 0.04
diagonal:  Solving for rho, Initial residual = 0, Final residual = 0, No Iterations 0
PIMPLE: iteration 1
smoothSolver:  Solving for Ux, Initial residual = 0.0101665, Final residual = 3.43138e-15, No Iterations 1000
smoothSolver:  Solving for e, Initial residual = 0.0102002, Final residual = 3.24266e-13, No Iterations 1000
smoothSolver:  Solving for p, Initial residual = 0.0104225, Final residual = 4.1977e-14, No Iterations 1000
diagonal:  Solving for rho, Initial residual = 0, Final residual = 0, No Iterations 0
time step continuity errors : sum local = 2.47167e-16, global = 2.27742e-16, cumulative = 1.54938e-14
PIMPLE: iteration 2
smoothSolver:  Solving for Ux, Initial residual = 1.24814e-05, Final residual = 3.34369e-15, No Iterations 1000
smoothSolver:  Solving for e, Initial residual = 0.000240589, Final residual = 3.13398e-13, No Iterations 1000
smoothSolver:  Solving for p, Initial residual = 3.97253e-05, Final residual = 1.18519e-13, No Iterations 1000
diagonal:  Solving for rho, Initial residual = 0, Final residual = 0, No Iterations 0
time step continuity errors : sum local = 2.22394e-17, global = 8.44533e-19, cumulative = 1.54947e-14
ExecutionTime = 10.16 s  ClockTime = 13 s

Time = 0.062

Courant Number mean: 0.0398657 max: 0.04
diagonal:  Solving for rho, Initial residual = 0, Final residual = 0, No Iterations 0
PIMPLE: iteration 1
smoothSolver:  Solving for Ux, Initial residual = 0.0100011, Final residual = 3.31317e-15, No Iterations 1000
smoothSolver:  Solving for e, Initial residual = 0.0100365, Final residual = 3.10373e-13, No Iterations 1000
smoothSolver:  Solving for p, Initial residual = 0.0102485, Final residual = 4.16361e-14, No Iterations 1000
diagonal:  Solving for rho, Initial residual = 0, Final residual = 0, No Iterations 0
time step continuity errors : sum local = 2.48008e-16, global = 2.30273e-16, cumulative = 1.5725e-14
PIMPLE: iteration 2
smoothSolver:  Solving for Ux, Initial residual = 1.21367e-05, Final residual = 3.21451e-15, No Iterations 1000
smoothSolver:  Solving for e, Initial residual = 0.000235516, Final residual = 3.01037e-13, No Iterations 1000
smoothSolver:  Solving for p, Initial residual = 3.89055e-05, Final residual = 1.12672e-13, No Iterations 1000
diagonal:  Solving for rho, Initial residual = 0, Final residual = 0, No Iterations 0
time step continuity errors : sum local = 2.11131e-17, global = 5.63016e-19, cumulative = 1.57255e-14
ExecutionTime = 10.34 s  ClockTime = 13 s

Time = 0.063

Courant Number mean: 0.0398603 max: 0.04
diagonal:  Solving for rho, Initial residual = 0, Final residual = 0, No Iterations 0
PIMPLE: iteration 1
smoothSolver:  Solving for Ux, Initial residual = 0.00984005, Final residual = 3.15547e-15, No Iterations 1000
[...]
smoothSolver:  Solving for e, Initial residual = 0.000527515, Final residual = 3.1587e-15, No Iterations 1000
smoothSolver:  Solving for p, Initial residual = 0.000527689, Final residual = 1.19075e-15, No Iterations 1000
diagonal:  Solving for rho, Initial residual = 0, Final residual = 0, No Iterations 0
time step continuity errors : sum local = 1.59209e-16, global = 6.66201e-18, cumulative = 5.29561e-14
PIMPLE: iteration 2
smoothSolver:  Solving for Ux, Initial residual = 4.51158e-07, Final residual = 2.97043e-17, No Iterations 1
smoothSolver:  Solving for e, Initial residual = 1.1025e-05, Final residual = 2.89299e-15, No Iterations 1000
smoothSolver:  Solving for p, Initial residual = 1.85877e-06, Final residual = 1.21356e-15, No Iterations 1000
diagonal:  Solving for rho, Initial residual = 0, Final residual = 0, No Iterations 0
time step continuity errors : sum local = 1.55402e-16, global = 5.84626e-18, cumulative = 5.29619e-14
ExecutionTime = 114.9 s  ClockTime = 127 s

Time = 0.986

Courant Number mean: 0.0221448 max: 0.04
diagonal:  Solving for rho, Initial residual = 0, Final residual = 0, No Iterations 0
PIMPLE: iteration 1
smoothSolver:  Solving for Ux, Initial residual = 0.000527663, Final residual = 2.62716e-17, No Iterations 2
smoothSolver:  Solving for e, Initial residual = 0.000527395, Final residual = 3.03467e-15, No Iterations 1000
smoothSolver:  Solving for p, Initial residual = 0.000527569, Final residual = 1.29326e-15, No Iterations 1000
diagonal:  Solving for rho, Initial residual = 0, Final residual = 0, No Iterations 0
time step continuity errors : sum local = 1.53764e-16, global = 6.79771e-19, cumulative = 5.29626e-14
PIMPLE: iteration 2
smoothSolver:  Solving for Ux, Initial residual = 4.51226e-07, Final residual = 3.03144e-17, No Iterations 1
smoothSolver:  Solving for e, Initial residual = 1.10268e-05, Final residual = 2.99291e-15, No Iterations 1000
smoothSolver:  Solving for p, Initial residual = 1.85933e-06, Final residual = 1.18366e-15, No Iterations 1000
diagonal:  Solving for rho, Initial residual = 0, Final residual = 0, No Iterations 0
time step continuity errors : sum local = 1.4384e-16, global = -9.24489e-18, cumulative = 5.29534e-14
ExecutionTime = 115.01 s  ClockTime = 127 s

Time = 0.987

Courant Number mean: 0.0221247 max: 0.04
diagonal:  Solving for rho, Initial residual = 0, Final residual = 0, No Iterations 0
PIMPLE: iteration 1
smoothSolver:  Solving for Ux, Initial residual = 0.000527544, Final residual = 2.72547e-17, No Iterations 2
smoothSolver:  Solving for e, Initial residual = 0.000527276, Final residual = 3.08566e-15, No Iterations 1000
smoothSolver:  Solving for p, Initial residual = 0.000527451, Final residual = 1.20723e-15, No Iterations 1000
diagonal:  Solving for rho, Initial residual = 0, Final residual = 0, No Iterations 0
time step continuity errors : sum local = 1.52399e-16, global = 4.07847e-19, cumulative = 5.29538e-14
PIMPLE: iteration 2
smoothSolver:  Solving for Ux, Initial residual = 4.51305e-07, Final residual = 2.90545e-17, No Iterations 1
smoothSolver:  Solving for e, Initial residual = 1.1032e-05, Final residual = 3.05028e-15, No Iterations 1000
smoothSolver:  Solving for p, Initial residual = 1.85996e-06, Final residual = 1.25115e-15, No Iterations 1000
diagonal:  Solving for rho, Initial residual = 0, Final residual = 0, No Iterations 0
time step continuity errors : sum local = 1.53078e-16, global = 5.70985e-18, cumulative = 5.29595e-14
ExecutionTime = 115.12 s  ClockTime = 127 s

Time = 0.988

Courant Number mean: 0.0221045 max: 0.04
diagonal:  Solving for rho, Initial residual = 0, Final residual = 0, No Iterations 0
PIMPLE: iteration 1
smoothSolver:  Solving for Ux, Initial residual = 0.000527427, Final residual = 2.69547e-17, No Iterations 2
smoothSolver:  Solving for e, Initial residual = 0.000527158, Final residual = 3.06943e-15, No Iterations 1000
smoothSolver:  Solving for p, Initial residual = 0.000527333, Final residual = 1.25298e-15, No Iterations 1000
diagonal:  Solving for rho, Initial residual = 0, Final residual = 0, No Iterations 0
time step continuity errors : sum local = 1.53888e-16, global = -6.5253e-18, cumulative = 5.2953e-14
PIMPLE: iteration 2
smoothSolver:  Solving for Ux, Initial residual = 4.51374e-07, Final residual = 2.92819e-17, No Iterations 1
smoothSolver:  Solving for e, Initial residual = 1.1034e-05, Final residual = 3.09701e-15, No Iterations 1000
smoothSolver:  Solving for p, Initial residual = 1.86056e-06, Final residual = 1.23954e-15, No Iterations 1000
diagonal:  Solving for rho, Initial residual = 0, Final residual = 0, No Iterations 0
time step continuity errors : sum local = 1.57559e-16, global = -2.31104e-18, cumulative = 5.29507e-14
ExecutionTime = 115.23 s  ClockTime = 127 s

Time = 0.989

Courant Number mean: 0.0220844 max: 0.04
diagonal:  Solving for rho, Initial residual = 0, Final residual = 0, No Iterations 0
PIMPLE: iteration 1
smoothSolver:  Solving for Ux, Initial residual = 0.000527311, Final residual = 2.75542e-17, No Iterations 2
smoothSolver:  Solving for e, Initial residual = 0.000527042, Final residual = 3.17402e-15, No Iterations 1000
smoothSolver:  Solving for p, Initial residual = 0.000527217, Final residual = 1.19882e-15, No Iterations 1000
diagonal:  Solving for rho, Initial residual = 0, Final residual = 0, No Iterations 0
time step continuity errors : sum local = 1.53338e-16, global = -2.71877e-19, cumulative = 5.29504e-14
PIMPLE: iteration 2
smoothSolver:  Solving for Ux, Initial residual = 4.51456e-07, Final residual = 2.94594e-17, No Iterations 1
smoothSolver:  Solving for e, Initial residual = 1.10391e-05, Final residual = 2.98899e-15, No Iterations 1000
smoothSolver:  Solving for p, Initial residual = 1.86116e-06, Final residual = 1.19421e-15, No Iterations 1000
diagonal:  Solving for rho, Initial residual = 0, Final residual = 0, No Iterations 0
time step continuity errors : sum local = 1.46949e-16, global = 7.20473e-18, cumulative = 5.29576e-14
ExecutionTime = 115.34 s  ClockTime = 127 s

Time = 0.99

Courant Number mean: 0.0220643 max: 0.04
diagonal:  Solving for rho, Initial residual = 0, Final residual = 0, No Iterations 0
PIMPLE: iteration 1
smoothSolver:  Solving for Ux, Initial residual = 0.000527195, Final residual = 2.51286e-17, No Iterations 2
smoothSolver:  Solving for e, Initial residual = 0.000526926, Final residual = 3.04011e-15, No Iterations 1000
smoothSolver:  Solving for p, Initial residual = 0.000527102, Final residual = 1.19982e-15, No Iterations 1000
diagonal:  Solving for rho, Initial residual = 0, Final residual = 0, No Iterations 0
time step continuity errors : sum local = 1.48031e-16, global = 3.67019e-18, cumulative = 5.29613e-14
PIMPLE: iteration 2
smoothSolver:  Solving for Ux, Initial residual = 4.51526e-07, Final residual = 2.85737e-17, No Iterations 1
smoothSolver:  Solving for e, Initial residual = 1.10413e-05, Final residual = 3.04948e-15, No Iterations 1000
smoothSolver:  Solving for p, Initial residual = 1.8618e-06, Final residual = 1.23837e-15, No Iterations 1000
diagonal:  Solving for rho, Initial residual = 0, Final residual = 0, No Iterations 0
time step continuity errors : sum local = 1.48167e-16, global = 2.17493e-18, cumulative = 5.29634e-14
ExecutionTime = 115.45 s  ClockTime = 127 s

Time = 0.991

Courant Number mean: 0.0220441 max: 0.04
diagonal:  Solving for rho, Initial residual = 0, Final residual = 0, No Iterations 0
PIMPLE: iteration 1
smoothSolver:  Solving for Ux, Initial residual = 0.000527081, Final residual = 2.45926e-17, No Iterations 2
smoothSolver:  Solving for e, Initial residual = 0.000526812, Final residual = 3.04027e-15, No Iterations 1000
smoothSolver:  Solving for p, Initial residual = 0.000526987, Final residual = 1.18728e-15, No Iterations 1000
diagonal:  Solving for rho, Initial residual = 0, Final residual = 0, No Iterations 0
time step continuity errors : sum local = 1.589e-16, global = 5.02933e-18, cumulative = 5.29685e-14
PIMPLE: iteration 2
smoothSolver:  Solving for Ux, Initial residual = 4.5161e-07, Final residual = 2.89022e-17, No Iterations 1
smoothSolver:  Solving for e, Initial residual = 1.10462e-05, Final residual = 2.9907e-15, No Iterations 1000
smoothSolver:  Solving for p, Initial residual = 1.86237e-06, Final residual = 1.22675e-15, No Iterations 1000
diagonal:  Solving for rho, Initial residual = 0, Final residual = 0, No Iterations 0
time step continuity errors : sum local = 1.59443e-16, global = 7.47603e-18, cumulative = 5.29759e-14
ExecutionTime = 115.56 s  ClockTime = 127 s

Time = 0.992

Courant Number mean: 0.022024 max: 0.04
diagonal:  Solving for rho, Initial residual = 0, Final residual = 0, No Iterations 0
PIMPLE: iteration 1
smoothSolver:  Solving for Ux, Initial residual = 0.000526968, Final residual = 2.55095e-17, No Iterations 2
smoothSolver:  Solving for e, Initial residual = 0.000526698, Final residual = 2.919e-15, No Iterations 1000
smoothSolver:  Solving for p, Initial residual = 0.000526875, Final residual = 1.27676e-15, No Iterations 1000
diagonal:  Solving for rho, Initial residual = 0, Final residual = 0, No Iterations 0
time step continuity errors : sum local = 1.58758e-16, global = 5.70875e-18, cumulative = 5.29816e-14
PIMPLE: iteration 2
smoothSolver:  Solving for Ux, Initial residual = 4.51682e-07, Final residual = 2.89833e-17, No Iterations 1
smoothSolver:  Solving for e, Initial residual = 1.10486e-05, Final residual = 3.0714e-15, No Iterations 1000
smoothSolver:  Solving for p, Initial residual = 1.86305e-06, Final residual = 1.23563e-15, No Iterations 1000
diagonal:  Solving for rho, Initial residual = 0, Final residual = 0, No Iterations 0
time step continuity errors : sum local = 1.51961e-16, global = -3.53399e-18, cumulative = 5.29781e-14
ExecutionTime = 115.67 s  ClockTime = 127 s

Time = 0.993

Courant Number mean: 0.0220038 max: 0.04
diagonal:  Solving for rho, Initial residual = 0, Final residual = 0, No Iterations 0
PIMPLE: iteration 1
smoothSolver:  Solving for Ux, Initial residual = 0.000526856, Final residual = 2.62913e-17, No Iterations 2
smoothSolver:  Solving for e, Initial residual = 0.000526586, Final residual = 3.02623e-15, No Iterations 1000
smoothSolver:  Solving for p, Initial residual = 0.000526763, Final residual = 1.21542e-15, No Iterations 1000
diagonal:  Solving for rho, Initial residual = 0, Final residual = 0, No Iterations 0
time step continuity errors : sum local = 1.56169e-16, global = 6.93178e-18, cumulative = 5.2985e-14
PIMPLE: iteration 2
smoothSolver:  Solving for Ux, Initial residual = 4.51768e-07, Final residual = 2.77285e-17, No Iterations 1
smoothSolver:  Solving for e, Initial residual = 1.10533e-05, Final residual = 2.97436e-15, No Iterations 1000
smoothSolver:  Solving for p, Initial residual = 1.86359e-06, Final residual = 1.15856e-15, No Iterations 1000
diagonal:  Solving for rho, Initial residual = 0, Final residual = 0, No Iterations 0
time step continuity errors : sum local = 1.47198e-16, global = 8.83462e-18, cumulative = 5.29939e-14
ExecutionTime = 115.78 s  ClockTime = 127 s

Time = 0.994

Courant Number mean: 0.0219837 max: 0.04
diagonal:  Solving for rho, Initial residual = 0, Final residual = 0, No Iterations 0
PIMPLE: iteration 1
smoothSolver:  Solving for Ux, Initial residual = 0.000526745, Final residual = 2.6225e-17, No Iterations 2
smoothSolver:  Solving for e, Initial residual = 0.000526475, Final residual = 2.89002e-15, No Iterations 1000
smoothSolver:  Solving for p, Initial residual = 0.000526652, Final residual = 1.19282e-15, No Iterations 1000
diagonal:  Solving for rho, Initial residual = 0, Final residual = 0, No Iterations 0
time step continuity errors : sum local = 1.48008e-16, global = -6.7956e-19, cumulative = 5.29932e-14
PIMPLE: iteration 2
smoothSolver:  Solving for Ux, Initial residual = 4.51842e-07, Final residual = 2.89787e-17, No Iterations 1
smoothSolver:  Solving for e, Initial residual = 1.10559e-05, Final residual = 2.95784e-15, No Iterations 1000
smoothSolver:  Solving for p, Initial residual = 1.8643e-06, Final residual = 1.29742e-15, No Iterations 1000
diagonal:  Solving for rho, Initial residual = 0, Final residual = 0, No Iterations 0
time step continuity errors : sum local = 1.53852e-16, global = -2.71824e-19, cumulative = 5.29929e-14
ExecutionTime = 115.89 s  ClockTime = 128 s

Time = 0.995

Courant Number mean: 0.0219635 max: 0.04
diagonal:  Solving for rho, Initial residual = 0, Final residual = 0, No Iterations 0
PIMPLE: iteration 1
smoothSolver:  Solving for Ux, Initial residual = 0.000526635, Final residual = 2.70251e-17, No Iterations 2
smoothSolver:  Solving for e, Initial residual = 0.000526365, Final residual = 3.05145e-15, No Iterations 1000
smoothSolver:  Solving for p, Initial residual = 0.000526542, Final residual = 1.29955e-15, No Iterations 1000
diagonal:  Solving for rho, Initial residual = 0, Final residual = 0, No Iterations 0
time step continuity errors : sum local = 1.56021e-16, global = 3.26176e-18, cumulative = 5.29962e-14
PIMPLE: iteration 2
smoothSolver:  Solving for Ux, Initial residual = 4.51929e-07, Final residual = 2.92067e-17, No Iterations 1
smoothSolver:  Solving for e, Initial residual = 1.10605e-05, Final residual = 3.01786e-15, No Iterations 1000
smoothSolver:  Solving for p, Initial residual = 1.86482e-06, Final residual = 1.26253e-15, No Iterations 1000
diagonal:  Solving for rho, Initial residual = 0, Final residual = 0, No Iterations 0
time step continuity errors : sum local = 1.55205e-16, global = 5.70808e-18, cumulative = 5.30019e-14
ExecutionTime = 116.01 s  ClockTime = 128 s

Time = 0.996

Courant Number mean: 0.0219434 max: 0.04
diagonal:  Solving for rho, Initial residual = 0, Final residual = 0, No Iterations 0
PIMPLE: iteration 1
smoothSolver:  Solving for Ux, Initial residual = 0.000526526, Final residual = 2.66084e-17, No Iterations 2
smoothSolver:  Solving for e, Initial residual = 0.000526256, Final residual = 2.93887e-15, No Iterations 1000
smoothSolver:  Solving for p, Initial residual = 0.000526433, Final residual = 1.23353e-15, No Iterations 1000
diagonal:  Solving for rho, Initial residual = 0, Final residual = 0, No Iterations 0
time step continuity errors : sum local = 1.52481e-16, global = 9.5131e-18, cumulative = 5.30114e-14
PIMPLE: iteration 2
smoothSolver:  Solving for Ux, Initial residual = 4.52005e-07, Final residual = 2.9401e-17, No Iterations 1
smoothSolver:  Solving for e, Initial residual = 1.10634e-05, Final residual = 3.11528e-15, No Iterations 1000
smoothSolver:  Solving for p, Initial residual = 1.86557e-06, Final residual = 1.22139e-15, No Iterations 1000
diagonal:  Solving for rho, Initial residual = 0, Final residual = 0, No Iterations 0
time step continuity errors : sum local = 1.5452e-16, global = 1.26388e-17, cumulative = 5.3024e-14
ExecutionTime = 116.12 s  ClockTime = 128 s

Time = 0.997

Courant Number mean: 0.0219232 max: 0.04
diagonal:  Solving for rho, Initial residual = 0, Final residual = 0, No Iterations 0
PIMPLE: iteration 1
smoothSolver:  Solving for Ux, Initial residual = 0.000526418, Final residual = 2.66439e-17, No Iterations 2
smoothSolver:  Solving for e, Initial residual = 0.000526148, Final residual = 3.04773e-15, No Iterations 1000
smoothSolver:  Solving for p, Initial residual = 0.000526326, Final residual = 1.25027e-15, No Iterations 1000
diagonal:  Solving for rho, Initial residual = 0, Final residual = 0, No Iterations 0
time step continuity errors : sum local = 1.50709e-16, global = -4.07689e-19, cumulative = 5.30236e-14
PIMPLE: iteration 2
smoothSolver:  Solving for Ux, Initial residual = 4.52094e-07, Final residual = 2.73854e-17, No Iterations 1
smoothSolver:  Solving for e, Initial residual = 1.10678e-05, Final residual = 3.07253e-15, No Iterations 1000
smoothSolver:  Solving for p, Initial residual = 1.86606e-06, Final residual = 1.22334e-15, No Iterations 1000
diagonal:  Solving for rho, Initial residual = 0, Final residual = 0, No Iterations 0
time step continuity errors : sum local = 1.57096e-16, global = 6.79481e-18, cumulative = 5.30304e-14
ExecutionTime = 116.24 s  ClockTime = 128 s

Time = 0.998

Courant Number mean: 0.0219031 max: 0.04
diagonal:  Solving for rho, Initial residual = 0, Final residual = 0, No Iterations 0
PIMPLE: iteration 1
smoothSolver:  Solving for Ux, Initial residual = 0.000526311, Final residual = 2.60628e-17, No Iterations 2
smoothSolver:  Solving for e, Initial residual = 0.000526042, Final residual = 3.03628e-15, No Iterations 1000
smoothSolver:  Solving for p, Initial residual = 0.000526219, Final residual = 1.22863e-15, No Iterations 1000
diagonal:  Solving for rho, Initial residual = 0, Final residual = 0, No Iterations 0
time step continuity errors : sum local = 1.5179e-16, global = 5.02796e-18, cumulative = 5.30355e-14
PIMPLE: iteration 2
smoothSolver:  Solving for Ux, Initial residual = 4.52173e-07, Final residual = 2.82553e-17, No Iterations 1
smoothSolver:  Solving for e, Initial residual = 1.1071e-05, Final residual = 2.86978e-15, No Iterations 1000
smoothSolver:  Solving for p, Initial residual = 1.86686e-06, Final residual = 1.20581e-15, No Iterations 1000
diagonal:  Solving for rho, Initial residual = 0, Final residual = 0, No Iterations 0
time step continuity errors : sum local = 1.52877e-16, global = 5.84331e-18, cumulative = 5.30413e-14
ExecutionTime = 116.35 s  ClockTime = 128 s

Time = 0.999

Courant Number mean: 0.021883 max: 0.04
diagonal:  Solving for rho, Initial residual = 0, Final residual = 0, No Iterations 0
PIMPLE: iteration 1
smoothSolver:  Solving for Ux, Initial residual = 0.000526206, Final residual = 2.60101e-17, No Iterations 2
smoothSolver:  Solving for e, Initial residual = 0.000525936, Final residual = 3.03748e-15, No Iterations 1000
smoothSolver:  Solving for p, Initial residual = 0.000526114, Final residual = 1.24505e-15, No Iterations 1000
diagonal:  Solving for rho, Initial residual = 0, Final residual = 0, No Iterations 0
time step continuity errors : sum local = 1.51648e-16, global = 5.97897e-18, cumulative = 5.30473e-14
PIMPLE: iteration 2
smoothSolver:  Solving for Ux, Initial residual = 4.52262e-07, Final residual = 2.79122e-17, No Iterations 1
smoothSolver:  Solving for e, Initial residual = 1.10752e-05, Final residual = 3.05397e-15, No Iterations 1000
smoothSolver:  Solving for p, Initial residual = 1.86733e-06, Final residual = 1.16972e-15, No Iterations 1000
diagonal:  Solving for rho, Initial residual = 0, Final residual = 0, No Iterations 0
time step continuity errors : sum local = 1.54094e-16, global = -2.71771e-19, cumulative = 5.3047e-14
ExecutionTime = 116.46 s  ClockTime = 128 s

Time = 1

Courant Number mean: 0.0218628 max: 0.04
diagonal:  Solving for rho, Initial residual = 0, Final residual = 0, No Iterations 0
PIMPLE: iteration 1
smoothSolver:  Solving for Ux, Initial residual = 0.000526101, Final residual = 2.55817e-17, No Iterations 2
smoothSolver:  Solving for e, Initial residual = 0.000525832, Final residual = 3.00921e-15, No Iterations 1000
smoothSolver:  Solving for p, Initial residual = 0.00052601, Final residual = 1.2426e-15, No Iterations 1000
diagonal:  Solving for rho, Initial residual = 0, Final residual = 0, No Iterations 0
time step continuity errors : sum local = 1.53001e-16, global = -1.90233e-18, cumulative = 5.30451e-14
PIMPLE: iteration 2
smoothSolver:  Solving for Ux, Initial residual = 4.52345e-07, Final residual = 2.83986e-17, No Iterations 1
smoothSolver:  Solving for e, Initial residual = 1.10787e-05, Final residual = 3.10498e-15, No Iterations 1000
smoothSolver:  Solving for p, Initial residual = 1.86816e-06, Final residual = 1.1761e-15, No Iterations 1000
diagonal:  Solving for rho, Initial residual = 0, Final residual = 0, No Iterations 0
time step continuity errors : sum local = 1.5504e-16, global = 1.10063e-17, cumulative = 5.30561e-14
ExecutionTime = 116.58 s  ClockTime = 128 s

writeRegisteredObject rhofunc output:
    writing object rho

End

