/*---------------------------------------------------------------------------*\
| =========                 |                                                 |
| \\      /  F ield         | OpenFOAM: The Open Source CFD Toolbox           |
|  \\    /   O peration     | Version:  3.0.x                                 |
|   \\  /    A nd           | Web:      www.OpenFOAM.org                      |
|    \\/     M anipulation  |                                                 |
\*---------------------------------------------------------------------------*/
Build  : 3.0.x-4b5e129783d9
Exec   : sonicFoam
Date   : Feb 07 2017
Time   : 15:37:50
Host   : "alex-VirtualBox"
PID    : 6469
Case   : /home/alex/OpenFOAM/alex-3.0.x/run/SH7tmp
nProcs : 1
sigFpe : Enabling floating point exception trapping (FOAM_SIGFPE).
fileModificationChecking : Monitoring run-time modified files using timeStampMaster
allowSystemOperations : Allowing user-supplied system call operations

// * * * * * * * * * * * * * * * * * * * * * * * * * * * * * * * * * * * * * //
Create time

Create mesh for time = 0


PIMPLE: no residual control data found. Calculations will employ 2 corrector loops

Reading thermophysical properties

Selecting thermodynamics package 
{
    type            hePsiThermo;
    mixture         pureMixture;
    transport       const;
    thermo          hConst;
    equationOfState perfectGas;
    specie          specie;
    energy          sensibleInternalEnergy;
}

Reading field U

Reading/calculating face flux field phi

Creating turbulence model

Selecting turbulence model type laminar
Creating field kinetic energy K

No MRF models present

No finite volume options present


Starting time loop

Time = 0.00025

Courant Number mean: 0.0500921 max: 0.813247
diagonal:  Solving for rho, Initial residual = 0, Final residual = 0, No Iterations 0
PIMPLE: iteration 1
smoothSolver:  Solving for Ux, Initial residual = 0.000135159, Final residual = 2.56001e-16, No Iterations 6
smoothSolver:  Solving for Uy, Initial residual = 0.000202454, Final residual = 3.47243e-16, No Iterations 6
smoothSolver:  Solving for e, Initial residual = 1, Final residual = 8.66498e-13, No Iterations 1000
smoothSolver:  Solving for p, Initial residual = 1, Final residual = 7.833e-12, No Iterations 1000
diagonal:  Solving for rho, Initial residual = 0, Final residual = 0, No Iterations 0
time step continuity errors : sum local = 3.21058e-15, global = -1.76017e-16, cumulative = -1.76017e-16
PIMPLE: iteration 2
smoothSolver:  Solving for Ux, Initial residual = 0.00088702, Final residual = 1.13651e-16, No Iterations 5
smoothSolver:  Solving for Uy, Initial residual = 0.00135427, Final residual = 1.11452e-16, No Iterations 5
smoothSolver:  Solving for e, Initial residual = 0.0857506, Final residual = 5.3737e-14, No Iterations 1000
smoothSolver:  Solving for p, Initial residual = 0.287008, Final residual = 2.76759e-12, No Iterations 1000
diagonal:  Solving for rho, Initial residual = 0, Final residual = 0, No Iterations 0
time step continuity errors : sum local = 3.47207e-15, global = 3.88434e-16, cumulative = 2.12417e-16
ExecutionTime = 1.86 s  ClockTime = 2 s

Time = 0.0005

Courant Number mean: 0.0494108 max: 0.433388
diagonal:  Solving for rho, Initial residual = 0, Final residual = 0, No Iterations 0
PIMPLE: iteration 1
smoothSolver:  Solving for Ux, Initial residual = 0.00256683, Final residual = 7.30033e-17, No Iterations 6
smoothSolver:  Solving for Uy, Initial residual = 0.00392805, Final residual = 4.35637e-17, No Iterations 6
smoothSolver:  Solving for e, Initial residual = 0.084, Final residual = 2.76916e-13, No Iterations 1000
smoothSolver:  Solving for p, Initial residual = 0.433186, Final residual = 5.96625e-12, No Iterations 1000
diagonal:  Solving for rho, Initial residual = 0, Final residual = 0, No Iterations 0
time step continuity errors : sum local = 5.18557e-15, global = 3.20003e-15, cumulative = 3.41244e-15
PIMPLE: iteration 2
smoothSolver:  Solving for Ux, Initial residual = 0.000191209, Final residual = 4.55396e-16, No Iterations 4
smoothSolver:  Solving for Uy, Initial residual = 0.000294639, Final residual = 6.15e-16, No Iterations 4
smoothSolver:  Solving for e, Initial residual = 0.13315, Final residual = 3.22037e-13, No Iterations 1000
smoothSolver:  Solving for p, Initial residual = 0.0994616, Final residual = 6.3102e-12, No Iterations 1000
diagonal:  Solving for rho, Initial residual = 0, Final residual = 0, No Iterations 0
time step continuity errors : sum local = 5.46567e-15, global = -2.75724e-15, cumulative = 6.55202e-16
ExecutionTime = 3.56 s  ClockTime = 4 s

Time = 0.00075

Courant Number mean: 0.0492787 max: 0.451351
diagonal:  Solving for rho, Initial residual = 0, Final residual = 0, No Iterations 0
PIMPLE: iteration 1
smoothSolver:  Solving for Ux, Initial residual = 0.00165317, Final residual = 8.90243e-17, No Iterations 5
smoothSolver:  Solving for Uy, Initial residual = 0.00252561, Final residual = 6.93292e-17, No Iterations 5
smoothSolver:  Solving for e, Initial residual = 0.0371245, Final residual = 3.15978e-13, No Iterations 1000
smoothSolver:  Solving for p, Initial residual = 0.363121, Final residual = 8.16876e-12, No Iterations 1000
diagonal:  Solving for rho, Initial residual = 0, Final residual = 0, No Iterations 0
time step continuity errors : sum local = 5.32503e-15, global = 3.06405e-15, cumulative = 3.71925e-15
PIMPLE: iteration 2
smoothSolver:  Solving for Ux, Initial residual = 0.000194578, Final residual = 6.01874e-16, No Iterations 4
smoothSolver:  Solving for Uy, Initial residual = 0.000301713, Final residual = 9.35455e-16, No Iterations 4
smoothSolver:  Solving for e, Initial residual = 0.0449981, Final residual = 3.35798e-13, No Iterations 1000
smoothSolver:  Solving for p, Initial residual = 0.0462657, Final residual = 9.77899e-12, No Iterations 1000
diagonal:  Solving for rho, Initial residual = 0, Final residual = 0, No Iterations 0
time step continuity errors : sum local = 5.08663e-15, global = -2.69015e-15, cumulative = 1.0291e-15
ExecutionTime = 5.26 s  ClockTime = 6 s

Time = 0.001

Courant Number mean: 0.0492786 max: 0.447702
diagonal:  Solving for rho, Initial residual = 0, Final residual = 0, No Iterations 0
PIMPLE: iteration 1
smoothSolver:  Solving for Ux, Initial residual = 0.000587943, Final residual = 7.53736e-17, No Iterations 5
smoothSolver:  Solving for Uy, Initial residual = 0.000875306, Final residual = 4.58867e-17, No Iterations 5
smoothSolver:  Solving for e, Initial residual = 0.060091, Final residual = 3.5006e-13, No Iterations 1000
smoothSolver:  Solving for p, Initial residual = 0.335514, Final residual = 1.1015e-11, No Iterations 1000
diagonal:  Solving for rho, Initial residual = 0, Final residual = 0, No Iterations 0
time step continuity errors : sum local = 5.27313e-15, global = 2.95336e-15, cumulative = 3.98246e-15
PIMPLE: iteration 2
smoothSolver:  Solving for Ux, Initial residual = 9.93291e-05, Final residual = 9.25526e-16, No Iterations 4
smoothSolver:  Solving for Uy, Initial residual = 0.000153593, Final residual = 4.38115e-17, No Iterations 5
smoothSolver:  Solving for e, Initial residual = 0.0332417, Final residual = 3.64252e-13, No Iterations 1000
smoothSolver:  Solving for p, Initial residual = 0.0456473, Final residual = 1.20653e-11, No Iterations 1000
diagonal:  Solving for rho, Initial residual = 0, Final residual = 0, No Iterations 0
time step continuity errors : sum local = 5.43034e-15, global = 3.13383e-15, cumulative = 7.11629e-15
ExecutionTime = 6.95 s  ClockTime = 8 s

Time = 0.00125

Courant Number mean: 0.0492935 max: 0.443204
diagonal:  Solving for rho, Initial residual = 0, Final residual = 0, No Iterations 0
PIMPLE: iteration 1
smoothSolver:  Solving for Ux, Initial residual = 0.000405204, Final residual = 7.25009e-17, No Iterations 5
smoothSolver:  Solving for Uy, Initial residual = 0.000614431, Final residual = 4.09185e-17, No Iterations 5
smoothSolver:  Solving for e, Initial residual = 0.0469005, Final residual = 3.67609e-13, No Iterations 1000
smoothSolver:  Solving for p, Initial residual = 0.201211, Final residual = 1.13901e-11, No Iterations 1000
diagonal:  Solving for rho, Initial residual = 0, Final residual = 0, No Iterations 0
time step continuity errors : sum local = 5.1947e-15, global = 2.83803e-15, cumulative = 9.95432e-15
PIMPLE: iteration 2
smoothSolver:  Solving for Ux, Initial residual = 3.58839e-05, Final residual = 5.72471e-16, No Iterations 4
smoothSolver:  Solving for Uy, Initial residual = 5.41738e-05, Final residual = 8.16913e-16, No Iterations 4
smoothSolver:  Solving for e, Initial residual = 0.0334451, Final residual = 3.53689e-13, No Iterations 1000
smoothSolver:  Solving for p, Initial residual = 0.0263522, Final residual = 1.08542e-11, No Iterations 1000
diagonal:  Solving for rho, Initial residual = 0, Final residual = 0, No Iterations 0
time step continuity errors : sum local = 5.13194e-15, global = 2.81696e-15, cumulative = 1.27713e-14
ExecutionTime = 8.64 s  ClockTime = 11 s

Time = 0.0015

Courant Number mean: 0.0493125 max: 0.447664
diagonal:  Solving for rho, Initial residual = 0, Final residual = 0, No Iterations 0
PIMPLE: iteration 1
smoothSolver:  Solving for Ux, Initial residual = 0.000459849, Final residual = 7.53245e-17, No Iterations 5
smoothSolver:  Solving for Uy, Initial residual = 0.000707283, Final residual = 4.61398e-17, No Iterations 5
smoothSolver:  Solving for e, Initial residual = 0.0303311, Final residual = 3.85234e-13, No Iterations 1000
smoothSolver:  Solving for p, Initial residual = 0.131546, Final residual = 1.14346e-11, No Iterations 1000
diagonal:  Solving for rho, Initial residual = 0, Final residual = 0, No Iterations 0
time step continuity errors : sum local = 5.63199e-15, global = 3.34122e-15, cumulative = 1.61125e-14
PIMPLE: iteration 2
smoothSolver:  Solving for Ux, Initial residual = 2.36019e-05, Final residual = 4.39058e-16, No Iterations 4
smoothSolver:  Solving for Uy, Initial residual = 3.7503e-05, Final residual = 6.33435e-16, No Iterations 4
smoothSolver:  Solving for e, Initial residual = 0.0223774, Final residual = 3.84625e-13, No Iterations 1000
smoothSolver:  Solving for p, Initial residual = 0.0158809, Final residual = 1.13427e-11, No Iterations 1000
diagonal:  Solving for rho, Initial residual = 0, Final residual = 0, No Iterations 0
time step continuity errors : sum local = 5.27481e-15, global = 2.9667e-15, cumulative = 1.90792e-14
ExecutionTime = 10.34 s  ClockTime = 13 s

Time = 0.00175

Courant Number mean: 0.0493306 max: 0.457483
diagonal:  Solving for rho, Initial residual = 0, Final residual = 0, No Iterations 0
PIMPLE: iteration 1
smoothSolver:  Solving for Ux, Initial residual = 0.000406657, Final residual = 7.66417e-17, No Iterations 5
smoothSolver:  Solving for Uy, Initial residual = 0.000611488, Final residual = 4.66676e-17, No Iterations 5
smoothSolver:  Solving for e, Initial residual = 0.0244127, Final residual = 3.83608e-13, No Iterations 1000
smoothSolver:  Solving for p, Initial residual = 0.115861, Final residual = 1.15947e-11, No Iterations 1000
diagonal:  Solving for rho, Initial residual = 0, Final residual = 0, No Iterations 0
time step continuity errors : sum local = 5.2965e-15, global = 2.95814e-15, cumulative = 2.20373e-14
PIMPLE: iteration 2
smoothSolver:  Solving for Ux, Initial residual = 2.04386e-05, Final residual = 3.51883e-16, No Iterations 4
smoothSolver:  Solving for Uy, Initial residual = 3.26746e-05, Final residual = 4.6553e-16, No Iterations 4
smoothSolver:  Solving for e, Initial residual = 0.0147633, Final residual = 4.00683e-13, No Iterations 1000
smoothSolver:  Solving for p, Initial residual = 0.0100772, Final residual = 1.15175e-11, No Iterations 1000
diagonal:  Solving for rho, Initial residual = 0, Final residual = 0, No Iterations 0
time step continuity errors : sum local = 5.37697e-15, global = -2.8144e-15, cumulative = 1.92229e-14
ExecutionTime = 12.06 s  ClockTime = 15 s

Time = 0.002

Courant Number mean: 0.0493475 max: 0.466549
diagonal:  Solving for rho, Initial residual = 0, Final residual = 0, No Iterations 0
PIMPLE: iteration 1
smoothSolver:  Solving for Ux, Initial residual = 0.000324219, Final residual = 7.42769e-17, No Iterations 5
smoothSolver:  Solving for Uy, Initial residual = 0.000490706, Final residual = 4.65324e-17, No Iterations 5
smoothSolver:  Solving for e, Initial residual = 0.0251452, Final residual = 4.15999e-13, No Iterations 1000
smoothSolver:  Solving for p, Initial residual = 0.103761, Final residual = 1.17824e-11, No Iterations 1000
diagonal:  Solving for rho, Initial residual = 0, Final residual = 0, No Iterations 0
time step continuity errors : sum local = 5.38025e-15, global = 3.0163e-15, cumulative = 2.22392e-14
PIMPLE: iteration 2
smoothSolver:  Solving for Ux, Initial residual = 1.60611e-05, Final residual = 2.67637e-16, No Iterations 4
smoothSolver:  Solving for Uy, Initial residual = 2.49265e-05, Final residual = 3.40602e-16, No Iterations 4
smoothSolver:  Solving for e, Initial residual = 0.0105588, Final residual = 4.27093e-13, No Iterations 1000
smoothSolver:  Solving for p, Initial residual = 0.00850394, Final residual = 1.21095e-11, No Iterations 1000
diagonal:  Solving for rho, Initial residual = 0, Final residual = 0, No Iterations 0
time step continuity errors : sum local = 4.98932e-15, global = -2.21502e-15, cumulative = 2.00242e-14
ExecutionTime = 13.75 s  ClockTime = 17 s

Time = 0.00225

Courant Number mean: 0.0493606 max: 0.471556
diagonal:  Solving for rho, Initial residual = 0, Final residual = 0, No Iterations 0
PIMPLE: iteration 1
smoothSolver:  Solving for Ux, Initial residual = 0.000266341, Final residual = 7.33135e-17, No Iterations 5
smoothSolver:  Solving for Uy, Initial residual = 0.000403412, Final residual = 4.2734e-17, No Iterations 5
smoothSolver:  Solving for e, Initial residual = 0.0254906, Final residual = 4.16246e-13, No Iterations 1000
smoothSolver:  Solving for p, Initial residual = 0.0915862, Final residual = 1.27086e-11, No Iterations 1000
diagonal:  Solving for rho, Initial residual = 0, Final residual = 0, No Iterations 0
time step continuity errors : sum local = 5.21212e-15, global = 2.86061e-15, cumulative = 2.28848e-14
PIMPLE: iteration 2
smoothSolver:  Solving for Ux, Initial residual = 1.13902e-05, Final residual = 1.69259e-16, No Iterations 4
smoothSolver:  Solving for Uy, Initial residual = 1.78955e-05, Final residual = 2.01316e-16, No Iterations 4
smoothSolver:  Solving for e, Initial residual = 0.009227, Final residual = 4.35445e-13, No Iterations 1000
smoothSolver:  Solving for p, Initial residual = 0.00698655, Final residual = 1.2297e-11, No Iterations 1000
diagonal:  Solving for rho, Initial residual = 0, Final residual = 0, No Iterations 0
time step continuity errors : sum local = 5.16586e-15, global = 2.38987e-15, cumulative = 2.52747e-14
ExecutionTime = 15.5 s  ClockTime = 19 s

Time = 0.0025

Courant Number mean: 0.0493684 max: 0.472822
diagonal:  Solving for rho, Initial residual = 0, Final residual = 0, No Iterations 0
PIMPLE: iteration 1
smoothSolver:  Solving for Ux, Initial residual = 0.000231155, Final residual = 7.26828e-17, No Iterations 5
smoothSolver:  Solving for Uy, Initial residual = 0.000351167, Final residual = 4.30276e-17, No Iterations 5
smoothSolver:  Solving for e, Initial residual = 0.0248167, Final residual = 4.46447e-13, No Iterations 1000
smoothSolver:  Solving for p, Initial residual = 0.0805885, Final residual = 1.167e-11, No Iterations 1000
diagonal:  Solving for rho, Initial residual = 0, Final residual = 0, No Iterations 0
time step continuity errors : sum local = 5.2609e-15, global = 2.99198e-15, cumulative = 2.82667e-14
PIMPLE: iteration 2
smoothSolver:  Solving for Ux, Initial residual = 8.11543e-06, Final residual = 1.13965e-16, No Iterations 4
smoothSolver:  Solving for Uy, Initial residual = 1.3052e-05, Final residual = 1.12099e-16, No Iterations 4
smoothSolver:  Solving for e, Initial residual = 0.00843612, Final residual = 4.83296e-13, No Iterations 1000
smoothSolver:  Solving for p, Initial residual = 0.0055026, Final residual = 1.14343e-11, No Iterations 1000
diagonal:  Solving for rho, Initial residual = 0, Final residual = 0, No Iterations 0
time step continuity errors : sum local = 5.13626e-15, global = 2.44934e-15, cumulative = 3.0716e-14
ExecutionTime = 17.23 s  ClockTime = 22 s

Time = 0.00275

Courant Number mean: 0.0493709 max: 0.47204
diagonal:  Solving for rho, Initial residual = 0, Final residual = 0, No Iterations 0
PIMPLE: iteration 1
smoothSolver:  Solving for Ux, Initial residual = 0.000221578, Final residual = 7.52899e-17, No Iterations 5
smoothSolver:  Solving for Uy, Initial residual = 0.000337304, Final residual = 4.14413e-17, No Iterations 5
smoothSolver:  Solving for e, Initial residual = 0.0249383, Final residual = 4.81469e-13, No Iterations 1000
smoothSolver:  Solving for p, Initial residual = 0.0726645, Final residual = 1.17617e-11, No Iterations 1000
diagonal:  Solving for rho, Initial residual = 0, Final residual = 0, No Iterations 0
time step continuity errors : sum local = 5.31442e-15, global = 2.88186e-15, cumulative = 3.35979e-14
PIMPLE: iteration 2
smoothSolver:  Solving for Ux, Initial residual = 5.7489e-06, Final residual = 1.05731e-16, No Iterations 4
smoothSolver:  Solving for Uy, Initial residual = 9.43238e-06, Final residual = 9.44126e-17, No Iterations 4
smoothSolver:  Solving for e, Initial residual = 0.0075191, Final residual = 4.81524e-13, No Iterations 1000
smoothSolver:  Solving for p, Initial residual = 0.00413633, Final residual = 1.09684e-11, No Iterations 1000
diagonal:  Solving for rho, Initial residual = 0, Final residual = 0, No Iterations 0
time step continuity errors : sum local = 4.9527e-15, global = 2.22926e-15, cumulative = 3.58271e-14
ExecutionTime = 18.95 s  ClockTime = 24 s

Time = 0.003

Courant Number mean: 0.0493693 max: 0.470442
diagonal:  Solving for rho, Initial residual = 0, Final residual = 0, No Iterations 0
PIMPLE: iteration 1
smoothSolver:  Solving for Ux, Initial residual = 0.000221511, Final residual = 8.05484e-16, No Iterations 4
smoothSolver:  Solving for Uy, Initial residual = 0.000336869, Final residual = 4.0959e-17, No Iterations 5
smoothSolver:  Solving for e, Initial residual = 0.025423, Final residual = 4.83759e-13, No Iterations 1000
smoothSolver:  Solving for p, Initial residual = 0.0691761, Final residual = 1.14321e-11, No Iterations 1000
diagonal:  Solving for rho, Initial residual = 0, Final residual = 0, No Iterations 0
time step continuity errors : sum local = 5.3136e-15, global = 3.00257e-15, cumulative = 3.88297e-14
PIMPLE: iteration 2
smoothSolver:  Solving for Ux, Initial residual = 4.2586e-06, Final residual = 9.42882e-17, No Iterations 4
smoothSolver:  Solving for Uy, Initial residual = 7.05951e-06, Final residual = 7.67157e-17, No Iterations 4
smoothSolver:  Solving for e, Initial residual = 0.00679568, Final residual = 5.04388e-13, No Iterations 1000
smoothSolver:  Solving for p, Initial residual = 0.00357855, Final residual = 1.0926e-11, No Iterations 1000
diagonal:  Solving for rho, Initial residual = 0, Final residual = 0, No Iterations 0
time step continuity errors : sum local = 4.87316e-15, global = 2.04775e-15, cumulative = 4.08775e-14
ExecutionTime = 20.67 s  ClockTime = 26 s

Time = 0.00325

Courant Number mean: 0.0493653 max: 0.468855
diagonal:  Solving for rho, Initial residual = 0, Final residual = 0, No Iterations 0
PIMPLE: iteration 1
smoothSolver:  Solving for Ux, Initial residual = 0.000223715, Final residual = 5.99066e-16, No Iterations 4
smoothSolver:  Solving for Uy, Initial residual = 0.000340131, Final residual = 8.49627e-16, No Iterations 4
smoothSolver:  Solving for e, Initial residual = 0.0258605, Final residual = 4.94983e-13, No Iterations 1000
smoothSolver:  Solving for p, Initial residual = 0.065407, Final residual = 1.14856e-11, No Iterations 1000
diagonal:  Solving for rho, Initial residual = 0, Final residual = 0, No Iterations 0
time step continuity errors : sum local = 5.31545e-15, global = 2.90524e-15, cumulative = 4.37827e-14
PIMPLE: iteration 2
smoothSolver:  Solving for Ux, Initial residual = 3.41005e-06, Final residual = 8.32119e-17, No Iterations 4
smoothSolver:  Solving for Uy, Initial residual = 5.64462e-06, Final residual = 6.09574e-17, No Iterations 4
smoothSolver:  Solving for e, Initial residual = 0.00638071, Final residual = 5.12836e-13, No Iterations 1000
smoothSolver:  Solving for p, Initial residual = 0.00339107, Final residual = 1.08729e-11, No Iterations 1000
diagonal:  Solving for rho, Initial residual = 0, Final residual = 0, No Iterations 0
time step continuity errors : sum local = 4.71257e-15, global = 1.71847e-15, cumulative = 4.55012e-14
ExecutionTime = 22.37 s  ClockTime = 28 s

Time = 0.0035

Courant Number mean: 0.0493604 max: 0.467108
diagonal:  Solving for rho, Initial residual = 0, Final residual = 0, No Iterations 0
PIMPLE: iteration 1
smoothSolver:  Solving for Ux, Initial residual = 0.000223685, Final residual = 4.65691e-16, No Iterations 4
smoothSolver:  Solving for Uy, Initial residual = 0.000342268, Final residual = 6.51548e-16, No Iterations 4
smoothSolver:  Solving for e, Initial residual = 0.026463, Final residual = 5.15846e-13, No Iterations 1000
smoothSolver:  Solving for p, Initial residual = 0.0626157, Final residual = 1.11948e-11, No Iterations 1000
diagonal:  Solving for rho, Initial residual = 0, Final residual = 0, No Iterations 0
time step continuity errors : sum local = 5.24473e-15, global = 2.84535e-15, cumulative = 4.83465e-14
PIMPLE: iteration 2
smoothSolver:  Solving for Ux, Initial residual = 2.83921e-06, Final residual = 7.56814e-17, No Iterations 4
smoothSolver:  Solving for Uy, Initial residual = 4.72805e-06, Final residual = 4.87555e-17, No Iterations 4
smoothSolver:  Solving for e, Initial residual = 0.00612738, Final residual = 5.33034e-13, No Iterations 1000
smoothSolver:  Solving for p, Initial residual = 0.00311301, Final residual = 1.0891e-11, No Iterations 1000
diagonal:  Solving for rho, Initial residual = 0, Final residual = 0, No Iterations 0
time step continuity errors : sum local = 4.8385e-15, global = 1.8757e-15, cumulative = 5.02222e-14
ExecutionTime = 24.09 s  ClockTime = 30 s

Time = 0.00375

Courant Number mean: 0.0493551 max: 0.465129
diagonal:  Solving for rho, Initial residual = 0, Final residual = 0, No Iterations 0
PIMPLE: iteration 1
smoothSolver:  Solving for Ux, Initial residual = 0.00022275, Final residual = 3.82035e-16, No Iterations 4
smoothSolver:  Solving for Uy, Initial residual = 0.000340183, Final residual = 5.21665e-16, No Iterations 4
smoothSolver:  Solving for e, Initial residual = 0.027169, Final residual = 5.30263e-13, No Iterations 1000
smoothSolver:  Solving for p, Initial residual = 0.0601319, Final residual = 1.1052e-11, No Iterations 1000
diagonal:  Solving for rho, Initial residual = 0, Final residual = 0, No Iterations 0
time step continuity errors : sum local = 5.14852e-15, global = 2.61205e-15, cumulative = 5.28343e-14
PIMPLE: iteration 2
smoothSolver:  Solving for Ux, Initial residual = 2.54e-06, Final residual = 7.52675e-17, No Iterations 4
smoothSolver:  Solving for Uy, Initial residual = 4.28773e-06, Final residual = 4.5333e-17, No Iterations 4
smoothSolver:  Solving for e, Initial residual = 0.0060315, Final residual = 5.38634e-13, No Iterations 1000
smoothSolver:  Solving for p, Initial residual = 0.00293733, Final residual = 1.04688e-11, No Iterations 1000
diagonal:  Solving for rho, Initial residual = 0, Final residual = 0, No Iterations 0
time step continuity errors : sum local = 4.86407e-15, global = 1.7098e-15, cumulative = 5.45441e-14
ExecutionTime = 25.8 s  ClockTime = 33 s

Time = 0.004

Courant Number mean: 0.0493499 max: 0.462886
diagonal:  Solving for rho, Initial residual = 0, Final residual = 0, No Iterations 0
PIMPLE: iteration 1
smoothSolver:  Solving for Ux, Initial residual = 0.000220102, Final residual = 3.23847e-16, No Iterations 4
smoothSolver:  Solving for Uy, Initial residual = 0.000336717, Final residual = 4.30714e-16, No Iterations 4
smoothSolver:  Solving for e, Initial residual = 0.0276852, Final residual = 5.4811e-13, No Iterations 1000
smoothSolver:  Solving for p, Initial residual = 0.0586012, Final residual = 1.11037e-11, No Iterations 1000
diagonal:  Solving for rho, Initial residual = 0, Final residual = 0, No Iterations 0
time step continuity errors : sum local = 5.21384e-15, global = 2.67702e-15, cumulative = 5.72211e-14
PIMPLE: iteration 2
smoothSolver:  Solving for Ux, Initial residual = 2.3871e-06, Final residual = 7.32075e-17, No Iterations 4
smoothSolver:  Solving for Uy, Initial residual = 4.02057e-06, Final residual = 4.34152e-17, No Iterations 4
smoothSolver:  Solving for e, Initial residual = 0.00578427, Final residual = 5.4337e-13, No Iterations 1000
smoothSolver:  Solving for p, Initial residual = 0.00277743, Final residual = 1.04918e-11, No Iterations 1000
diagonal:  Solving for rho, Initial residual = 0, Final residual = 0, No Iterations 0
time step continuity errors : sum local = 4.77696e-15, global = 1.80673e-15, cumulative = 5.90278e-14
ExecutionTime = 27.54 s  ClockTime = 35 s

Time = 0.00425

Courant Number mean: 0.0493451 max: 0.460401
diagonal:  Solving for rho, Initial residual = 0, Final residual = 0, No Iterations 0
PIMPLE: iteration 1
smoothSolver:  Solving for Ux, Initial residual = 0.000216848, Final residual = 2.81853e-16, No Iterations 4
smoothSolver:  Solving for Uy, Initial residual = 0.000332084, Final residual = 3.63881e-16, No Iterations 4
smoothSolver:  Solving for e, Initial residual = 0.0279986, Final residual = 5.56688e-13, No Iterations 1000
smoothSolver:  Solving for p, Initial residual = 0.0565379, Final residual = 1.09564e-11, No Iterations 1000
diagonal:  Solving for rho, Initial residual = 0, Final residual = 0, No Iterations 0
time step continuity errors : sum local = 5.12269e-15, global = 2.52488e-15, cumulative = 6.15527e-14
PIMPLE: iteration 2
smoothSolver:  Solving for Ux, Initial residual = 2.26888e-06, Final residual = 7.2417e-17, No Iterations 4
smoothSolver:  Solving for Uy, Initial residual = 3.78179e-06, Final residual = 4.29869e-17, No Iterations 4
smoothSolver:  Solving for e, Initial residual = 0.0055751, Final residual = 5.61865e-13, No Iterations 1000
smoothSolver:  Solving for p, Initial residual = 0.0026103, Final residual = 1.07216e-11, No Iterations 1000
diagonal:  Solving for rho, Initial residual = 0, Final residual = 0, No Iterations 0
time step continuity errors : sum local = 4.73153e-15, global = 1.46424e-15, cumulative = 6.3017e-14
ExecutionTime = 29.25 s  ClockTime = 37 s

Time = 0.0045

Courant Number mean: 0.0493404 max: 0.458336
diagonal:  Solving for rho, Initial residual = 0, Final residual = 0, No Iterations 0
PIMPLE: iteration 1
smoothSolver:  Solving for Ux, Initial residual = 0.000213992, Final residual = 2.44942e-16, No Iterations 4
smoothSolver:  Solving for Uy, Initial residual = 0.000327189, Final residual = 3.08217e-16, No Iterations 4
smoothSolver:  Solving for e, Initial residual = 0.0282069, Final residual = 5.67184e-13, No Iterations 1000
smoothSolver:  Solving for p, Initial residual = 0.0548913, Final residual = 1.10358e-11, No Iterations 1000
diagonal:  Solving for rho, Initial residual = 0, Final residual = 0, No Iterations 0
time step continuity errors : sum local = 5.25361e-15, global = 2.66411e-15, cumulative = 6.56811e-14
PIMPLE: iteration 2
smoothSolver:  Solving for Ux, Initial residual = 2.17731e-06, Final residual = 7.36367e-17, No Iterations 4
smoothSolver:  Solving for Uy, Initial residual = 3.63587e-06, Final residual = 4.25068e-17, No Iterations 4
smoothSolver:  Solving for e, Initial residual = 0.00548322, Final residual = 5.69633e-13, No Iterations 1000
smoothSolver:  Solving for p, Initial residual = 0.00249071, Final residual = 1.08518e-11, No Iterations 1000
diagonal:  Solving for rho, Initial residual = 0, Final residual = 0, No Iterations 0
time step continuity errors : sum local = 4.73932e-15, global = 1.65407e-15, cumulative = 6.73351e-14
ExecutionTime = 30.98 s  ClockTime = 39 s

Time = 0.00475

Courant Number mean: 0.0493362 max: 0.456147
diagonal:  Solving for rho, Initial residual = 0, Final residual = 0, No Iterations 0
PIMPLE: iteration 1
smoothSolver:  Solving for Ux, Initial residual = 0.000210361, Final residual = 2.16212e-16, No Iterations 4
smoothSolver:  Solving for Uy, Initial residual = 0.000321369, Final residual = 2.64323e-16, No Iterations 4
smoothSolver:  Solving for e, Initial residual = 0.0281925, Final residual = 5.8688e-13, No Iterations 1000
smoothSolver:  Solving for p, Initial residual = 0.0540291, Final residual = 1.08329e-11, No Iterations 1000
diagonal:  Solving for rho, Initial residual = 0, Final residual = 0, No Iterations 0
time step continuity errors : sum local = 5.26454e-15, global = 2.70257e-15, cumulative = 7.00377e-14
PIMPLE: iteration 2
smoothSolver:  Solving for Ux, Initial residual = 2.13667e-06, Final residual = 7.12922e-17, No Iterations 4
smoothSolver:  Solving for Uy, Initial residual = 3.56161e-06, Final residual = 4.12205e-17, No Iterations 4
smoothSolver:  Solving for e, Initial residual = 0.00544056, Final residual = 5.8729e-13, No Iterations 1000
smoothSolver:  Solving for p, Initial residual = 0.00243688, Final residual = 1.04493e-11, No Iterations 1000
diagonal:  Solving for rho, Initial residual = 0, Final residual = 0, No Iterations 0
time step continuity errors : sum local = 4.79452e-15, global = 1.66516e-15, cumulative = 7.17029e-14
ExecutionTime = 32.7 s  ClockTime = 42 s

Time = 0.005

Courant Number mean: 0.0493331 max: 0.45379
diagonal:  Solving for rho, Initial residual = 0, Final residual = 0, No Iterations 0
PIMPLE: iteration 1
smoothSolver:  Solving for Ux, Initial residual = 0.000206702, Final residual = 1.93953e-16, No Iterations 4
smoothSolver:  Solving for Uy, Initial residual = 0.000315209, Final residual = 2.30637e-16, No Iterations 4
smoothSolver:  Solving for e, Initial residual = 0.0281931, Final residual = 5.74373e-13, No Iterations 1000
smoothSolver:  Solving for p, Initial residual = 0.0525873, Final residual = 1.0877e-11, No Iterations 1000
diagonal:  Solving for rho, Initial residual = 0, Final residual = 0, No Iterations 0
time step continuity errors : sum local = 5.1978e-15, global = 2.628e-15, cumulative = 7.43309e-14
PIMPLE: iteration 2
smoothSolver:  Solving for Ux, Initial residual = 2.11265e-06, Final residual = 7.20086e-17, No Iterations 4
smoothSolver:  Solving for Uy, Initial residual = 3.51279e-06, Final residual = 4.23465e-17, No Iterations 4
smoothSolver:  Solving for e, Initial residual = 0.00534808, Final residual = 5.99401e-13, No Iterations 1000
smoothSolver:  Solving for p, Initial residual = 0.00236772, Final residual = 1.0426e-11, No Iterations 1000
diagonal:  Solving for rho, Initial residual = 0, Final residual = 0, No Iterations 0
time step continuity errors : sum local = 4.77576e-15, global = 1.64259e-15, cumulative = 7.59735e-14
ExecutionTime = 34.44 s  ClockTime = 44 s

Time = 0.00525

Courant Number mean: 0.0493306 max: 0.451277
diagonal:  Solving for rho, Initial residual = 0, Final residual = 0, No Iterations 0
PIMPLE: iteration 1
smoothSolver:  Solving for Ux, Initial residual = 0.000202865, Final residual = 1.76591e-16, No Iterations 4
smoothSolver:  Solving for Uy, Initial residual = 0.000309506, Final residual = 2.03362e-16, No Iterations 4
smoothSolver:  Solving for e, Initial residual = 0.0280977, Final residual = 5.90396e-13, No Iterations 1000
smoothSolver:  Solving for p, Initial residual = 0.0512863, Final residual = 1.07828e-11, No Iterations 1000
diagonal:  Solving for rho, Initial residual = 0, Final residual = 0, No Iterations 0
time step continuity errors : sum local = 5.35701e-15, global = 2.93918e-15, cumulative = 7.89126e-14
PIMPLE: iteration 2
smoothSolver:  Solving for Ux, Initial residual = 2.01601e-06, Final residual = 7.26157e-17, No Iterations 4
smoothSolver:  Solving for Uy, Initial residual = 3.37978e-06, Final residual = 4.2047e-17, No Iterations 4
smoothSolver:  Solving for e, Initial residual = 0.00516018, Final residual = 6.02195e-13, No Iterations 1000
smoothSolver:  Solving for p, Initial residual = 0.00229544, Final residual = 1.05965e-11, No Iterations 1000
diagonal:  Solving for rho, Initial residual = 0, Final residual = 0, No Iterations 0
time step continuity errors : sum local = 4.89578e-15, global = 1.69114e-15, cumulative = 8.06038e-14
ExecutionTime = 36.2 s  ClockTime = 46 s

Time = 0.0055

Courant Number mean: 0.0493289 max: 0.448603
diagonal:  Solving for rho, Initial residual = 0, Final residual = 0, No Iterations 0
PIMPLE: iteration 1
smoothSolver:  Solving for Ux, Initial residual = 0.000198613, Final residual = 1.61495e-16, No Iterations 4
smoothSolver:  Solving for Uy, Initial residual = 0.00030364, Final residual = 1.80307e-16, No Iterations 4
smoothSolver:  Solving for e, Initial residual = 0.02793, Final residual = 5.97174e-13, No Iterations 1000
smoothSolver:  Solving for p, Initial residual = 0.0499033, Final residual = 1.12752e-11, No Iterations 1000
diagonal:  Solving for rho, Initial residual = 0, Final residual = 0, No Iterations 0
time step continuity errors : sum local = 5.21208e-15, global = 2.68005e-15, cumulative = 8.32838e-14
PIMPLE: iteration 2
smoothSolver:  Solving for Ux, Initial residual = 1.94814e-06, Final residual = 8.25025e-16, No Iterations 3
smoothSolver:  Solving for Uy, Initial residual = 3.21273e-06, Final residual = 4.14769e-17, No Iterations 4
smoothSolver:  Solving for e, Initial residual = 0.00497573, Final residual = 6.06482e-13, No Iterations 1000
smoothSolver:  Solving for p, Initial residual = 0.00219213, Final residual = 1.05269e-11, No Iterations 1000
diagonal:  Solving for rho, Initial residual = 0, Final residual = 0, No Iterations 0
time step continuity errors : sum local = 4.74266e-15, global = 1.72416e-15, cumulative = 8.5008e-14
ExecutionTime = 37.94 s  ClockTime = 48 s

Time = 0.00575

Courant Number mean: 0.0493275 max: 0.446184
diagonal:  Solving for rho, Initial residual = 0, Final residual = 0, No Iterations 0
PIMPLE: iteration 1
smoothSolver:  Solving for Ux, Initial residual = 0.000194423, Final residual = 1.48265e-16, No Iterations 4
smoothSolver:  Solving for Uy, Initial residual = 0.000297164, Final residual = 1.58825e-16, No Iterations 4
smoothSolver:  Solving for e, Initial residual = 0.0276687, Final residual = 6.05678e-13, No Iterations 1000
smoothSolver:  Solving for p, Initial residual = 0.0486611, Final residual = 1.08662e-11, No Iterations 1000
diagonal:  Solving for rho, Initial residual = 0, Final residual = 0, No Iterations 0
time step continuity errors : sum local = 5.14623e-15, global = 2.38675e-15, cumulative = 8.73947e-14
PIMPLE: iteration 2
smoothSolver:  Solving for Ux, Initial residual = 1.88058e-06, Final residual = 7.13183e-16, No Iterations 3
smoothSolver:  Solving for Uy, Initial residual = 3.11452e-06, Final residual = 9.67924e-16, No Iterations 3
smoothSolver:  Solving for e, Initial residual = 0.00482505, Final residual = 6.05234e-13, No Iterations 1000
smoothSolver:  Solving for p, Initial residual = 0.00211185, Final residual = 1.02928e-11, No Iterations 1000
diagonal:  Solving for rho, Initial residual = 0, Final residual = 0, No Iterations 0
time step continuity errors : sum local = 4.797e-15, global = 1.66283e-15, cumulative = 8.90576e-14
ExecutionTime = 39.68 s  ClockTime = 50 s

Time = 0.006

Courant Number mean: 0.0493265 max: 0.443857
diagonal:  Solving for rho, Initial residual = 0, Final residual = 0, No Iterations 0
PIMPLE: iteration 1
smoothSolver:  Solving for Ux, Initial residual = 0.000190621, Final residual = 1.37515e-16, No Iterations 4
smoothSolver:  Solving for Uy, Initial residual = 0.00029112, Final residual = 1.41101e-16, No Iterations 4
smoothSolver:  Solving for e, Initial residual = 0.0273208, Final residual = 6.12949e-13, No Iterations 1000
smoothSolver:  Solving for p, Initial residual = 0.0476322, Final residual = 1.08061e-11, No Iterations 1000
diagonal:  Solving for rho, Initial residual = 0, Final residual = 0, No Iterations 0
time step continuity errors : sum local = 5.29992e-15, global = 2.59474e-15, cumulative = 9.16523e-14
PIMPLE: iteration 2
smoothSolver:  Solving for Ux, Initial residual = 1.77931e-06, Final residual = 6.51687e-16, No Iterations 3
smoothSolver:  Solving for Uy, Initial residual = 2.97397e-06, Final residual = 9.41285e-16, No Iterations 3
smoothSolver:  Solving for e, Initial residual = 0.00463616, Final residual = 6.20861e-13, No Iterations 1000
smoothSolver:  Solving for p, Initial residual = 0.00203029, Final residual = 1.04187e-11, No Iterations 1000
diagonal:  Solving for rho, Initial residual = 0, Final residual = 0, No Iterations 0
time step continuity errors : sum local = 4.76704e-15, global = 1.68656e-15, cumulative = 9.33389e-14
ExecutionTime = 41.45 s  ClockTime = 53 s

Time = 0.00625

Courant Number mean: 0.0493258 max: 0.441364
diagonal:  Solving for rho, Initial residual = 0, Final residual = 0, No Iterations 0
PIMPLE: iteration 1
smoothSolver:  Solving for Ux, Initial residual = 0.000187306, Final residual = 1.28141e-16, No Iterations 4
smoothSolver:  Solving for Uy, Initial residual = 0.000286282, Final residual = 1.2867e-16, No Iterations 4
smoothSolver:  Solving for e, Initial residual = 0.0269524, Final residual = 6.15177e-13, No Iterations 1000
smoothSolver:  Solving for p, Initial residual = 0.0468232, Final residual = 1.0891e-11, No Iterations 1000
diagonal:  Solving for rho, Initial residual = 0, Final residual = 0, No Iterations 0
time step continuity errors : sum local = 5.35709e-15, global = 2.82431e-15, cumulative = 9.61632e-14
PIMPLE: iteration 2
smoothSolver:  Solving for Ux, Initial residual = 1.74858e-06, Final residual = 6.20008e-16, No Iterations 3
smoothSolver:  Solving for Uy, Initial residual = 2.93554e-06, Final residual = 8.34601e-16, No Iterations 3
smoothSolver:  Solving for e, Initial residual = 0.00442826, Final residual = 6.06078e-13, No Iterations 1000
smoothSolver:  Solving for p, Initial residual = 0.00197184, Final residual = 1.04424e-11, No Iterations 1000
diagonal:  Solving for rho, Initial residual = 0, Final residual = 0, No Iterations 0
time step continuity errors : sum local = 4.79535e-15, global = 1.7537e-15, cumulative = 9.79169e-14
ExecutionTime = 43.2 s  ClockTime = 55 s

Time = 0.0065

Courant Number mean: 0.0493252 max: 0.438753
diagonal:  Solving for rho, Initial residual = 0, Final residual = 0, No Iterations 0
PIMPLE: iteration 1
smoothSolver:  Solving for Ux, Initial residual = 0.000183473, Final residual = 1.20279e-16, No Iterations 4
smoothSolver:  Solving for Uy, Initial residual = 0.000281359, Final residual = 1.14788e-16, No Iterations 4
smoothSolver:  Solving for e, Initial residual = 0.0264691, Final residual = 6.20292e-13, No Iterations 1000
smoothSolver:  Solving for p, Initial residual = 0.0464923, Final residual = 1.0938e-11, No Iterations 1000
diagonal:  Solving for rho, Initial residual = 0, Final residual = 0, No Iterations 0
time step continuity errors : sum local = 5.23231e-15, global = 2.3709e-15, cumulative = 1.00288e-13
PIMPLE: iteration 2
smoothSolver:  Solving for Ux, Initial residual = 1.74687e-06, Final residual = 4.66675e-16, No Iterations 3
smoothSolver:  Solving for Uy, Initial residual = 2.83365e-06, Final residual = 7.27385e-16, No Iterations 3
smoothSolver:  Solving for e, Initial residual = 0.00428666, Final residual = 6.13785e-13, No Iterations 1000
smoothSolver:  Solving for p, Initial residual = 0.00191759, Final residual = 1.06198e-11, No Iterations 1000
diagonal:  Solving for rho, Initial residual = 0, Final residual = 0, No Iterations 0
time step continuity errors : sum local = 4.65801e-15, global = 1.44984e-15, cumulative = 1.01738e-13
ExecutionTime = 44.94 s  ClockTime = 57 s

Time = 0.00675

Courant Number mean: 0.0493245 max: 0.435995
diagonal:  Solving for rho, Initial residual = 0, Final residual = 0, No Iterations 0
PIMPLE: iteration 1
smoothSolver:  Solving for Ux, Initial residual = 0.000180655, Final residual = 1.13849e-16, No Iterations 4
smoothSolver:  Solving for Uy, Initial residual = 0.000276596, Final residual = 1.04694e-16, No Iterations 4
smoothSolver:  Solving for e, Initial residual = 0.0259996, Final residual = 6.24221e-13, No Iterations 1000
smoothSolver:  Solving for p, Initial residual = 0.0454201, Final residual = 1.07709e-11, No Iterations 1000
diagonal:  Solving for rho, Initial residual = 0, Final residual = 0, No Iterations 0
time step continuity errors : sum local = 5.11351e-15, global = 2.45331e-15, cumulative = 1.04191e-13
PIMPLE: iteration 2
smoothSolver:  Solving for Ux, Initial residual = 1.66473e-06, Final residual = 4.32459e-16, No Iterations 3
smoothSolver:  Solving for Uy, Initial residual = 2.77547e-06, Final residual = 6.34637e-16, No Iterations 3
smoothSolver:  Solving for e, Initial residual = 0.00419483, Final residual = 6.03567e-13, No Iterations 1000
smoothSolver:  Solving for p, Initial residual = 0.00190901, Final residual = 1.06725e-11, No Iterations 1000
diagonal:  Solving for rho, Initial residual = 0, Final residual = 0, No Iterations 0
time step continuity errors : sum local = 4.90686e-15, global = 1.82994e-15, cumulative = 1.06021e-13
ExecutionTime = 46.64 s  ClockTime = 59 s

Time = 0.007

Courant Number mean: 0.0493239 max: 0.433077
diagonal:  Solving for rho, Initial residual = 0, Final residual = 0, No Iterations 0
PIMPLE: iteration 1
smoothSolver:  Solving for Ux, Initial residual = 0.000178364, Final residual = 1.07254e-16, No Iterations 4
smoothSolver:  Solving for Uy, Initial residual = 0.000271985, Final residual = 9.61402e-17, No Iterations 4
smoothSolver:  Solving for e, Initial residual = 0.025501, Final residual = 6.09238e-13, No Iterations 1000
smoothSolver:  Solving for p, Initial residual = 0.0449625, Final residual = 1.09593e-11, No Iterations 1000
diagonal:  Solving for rho, Initial residual = 0, Final residual = 0, No Iterations 0
time step continuity errors : sum local = 5.42081e-15, global = 2.62543e-15, cumulative = 1.08646e-13
PIMPLE: iteration 2
smoothSolver:  Solving for Ux, Initial residual = 1.66892e-06, Final residual = 4.40633e-16, No Iterations 3
smoothSolver:  Solving for Uy, Initial residual = 2.73721e-06, Final residual = 6.37034e-16, No Iterations 3
smoothSolver:  Solving for e, Initial residual = 0.0040365, Final residual = 6.01739e-13, No Iterations 1000
smoothSolver:  Solving for p, Initial residual = 0.00185731, Final residual = 1.06134e-11, No Iterations 1000
diagonal:  Solving for rho, Initial residual = 0, Final residual = 0, No Iterations 0
time step continuity errors : sum local = 4.90198e-15, global = 1.78839e-15, cumulative = 1.10435e-13
ExecutionTime = 48.36 s  ClockTime = 62 s

Time = 0.00725

Courant Number mean: 0.0493233 max: 0.430382
diagonal:  Solving for rho, Initial residual = 0, Final residual = 0, No Iterations 0
PIMPLE: iteration 1
smoothSolver:  Solving for Ux, Initial residual = 0.000175508, Final residual = 1.05737e-16, No Iterations 4
smoothSolver:  Solving for Uy, Initial residual = 0.000267792, Final residual = 8.98623e-17, No Iterations 4
smoothSolver:  Solving for e, Initial residual = 0.0249391, Final residual = 5.95536e-13, No Iterations 1000
smoothSolver:  Solving for p, Initial residual = 0.0443027, Final residual = 1.06547e-11, No Iterations 1000
diagonal:  Solving for rho, Initial residual = 0, Final residual = 0, No Iterations 0
time step continuity errors : sum local = 5.15838e-15, global = 2.32364e-15, cumulative = 1.12758e-13
PIMPLE: iteration 2
smoothSolver:  Solving for Ux, Initial residual = 1.59932e-06, Final residual = 3.97218e-16, No Iterations 3
smoothSolver:  Solving for Uy, Initial residual = 2.6632e-06, Final residual = 5.11208e-16, No Iterations 3
smoothSolver:  Solving for e, Initial residual = 0.00390142, Final residual = 5.959e-13, No Iterations 1000
smoothSolver:  Solving for p, Initial residual = 0.0018242, Final residual = 1.05899e-11, No Iterations 1000
diagonal:  Solving for rho, Initial residual = 0, Final residual = 0, No Iterations 0
time step continuity errors : sum local = 4.87739e-15, global = 1.55447e-15, cumulative = 1.14313e-13
ExecutionTime = 50.05 s  ClockTime = 64 s

Time = 0.0075

Courant Number mean: 0.0493227 max: 0.427881
diagonal:  Solving for rho, Initial residual = 0, Final residual = 0, No Iterations 0
PIMPLE: iteration 1
smoothSolver:  Solving for Ux, Initial residual = 0.000173065, Final residual = 9.88103e-17, No Iterations 4
smoothSolver:  Solving for Uy, Initial residual = 0.000263629, Final residual = 8.19172e-17, No Iterations 4
smoothSolver:  Solving for e, Initial residual = 0.024421, Final residual = 6.00985e-13, No Iterations 1000
smoothSolver:  Solving for p, Initial residual = 0.0435323, Final residual = 1.07065e-11, No Iterations 1000
diagonal:  Solving for rho, Initial residual = 0, Final residual = 0, No Iterations 0
time step continuity errors : sum local = 5.25589e-15, global = 2.41775e-15, cumulative = 1.16731e-13
PIMPLE: iteration 2
smoothSolver:  Solving for Ux, Initial residual = 1.57038e-06, Final residual = 4.15988e-16, No Iterations 3
smoothSolver:  Solving for Uy, Initial residual = 2.58126e-06, Final residual = 6.01039e-16, No Iterations 3
smoothSolver:  Solving for e, Initial residual = 0.00373203, Final residual = 5.93979e-13, No Iterations 1000
smoothSolver:  Solving for p, Initial residual = 0.00174634, Final residual = 1.02745e-11, No Iterations 1000
diagonal:  Solving for rho, Initial residual = 0, Final residual = 0, No Iterations 0
time step continuity errors : sum local = 4.79898e-15, global = 1.60843e-15, cumulative = 1.18339e-13
ExecutionTime = 51.74 s  ClockTime = 66 s

Time = 0.00775

Courant Number mean: 0.0493219 max: 0.425249
diagonal:  Solving for rho, Initial residual = 0, Final residual = 0, No Iterations 0
PIMPLE: iteration 1
smoothSolver:  Solving for Ux, Initial residual = 0.000170285, Final residual = 9.3344e-17, No Iterations 4
smoothSolver:  Solving for Uy, Initial residual = 0.000259639, Final residual = 7.64221e-17, No Iterations 4
smoothSolver:  Solving for e, Initial residual = 0.0238818, Final residual = 5.82126e-13, No Iterations 1000
smoothSolver:  Solving for p, Initial residual = 0.0428323, Final residual = 1.0697e-11, No Iterations 1000
diagonal:  Solving for rho, Initial residual = 0, Final residual = 0, No Iterations 0
time step continuity errors : sum local = 5.22004e-15, global = 2.55654e-15, cumulative = 1.20896e-13
PIMPLE: iteration 2
smoothSolver:  Solving for Ux, Initial residual = 1.58051e-06, Final residual = 4.19714e-16, No Iterations 3
smoothSolver:  Solving for Uy, Initial residual = 2.604e-06, Final residual = 5.25829e-16, No Iterations 3
smoothSolver:  Solving for e, Initial residual = 0.00358921, Final residual = 5.8374e-13, No Iterations 1000
smoothSolver:  Solving for p, Initial residual = 0.0017041, Final residual = 1.04777e-11, No Iterations 1000
diagonal:  Solving for rho, Initial residual = 0, Final residual = 0, No Iterations 0
time step continuity errors : sum local = 4.82981e-15, global = 1.73607e-15, cumulative = 1.22632e-13
ExecutionTime = 53.48 s  ClockTime = 68 s

Time = 0.008

Courant Number mean: 0.0493213 max: 0.422521
diagonal:  Solving for rho, Initial residual = 0, Final residual = 0, No Iterations 0
PIMPLE: iteration 1
smoothSolver:  Solving for Ux, Initial residual = 0.000167734, Final residual = 9.28925e-17, No Iterations 4
smoothSolver:  Solving for Uy, Initial residual = 0.000255727, Final residual = 6.98017e-17, No Iterations 4
smoothSolver:  Solving for e, Initial residual = 0.0233634, Final residual = 5.9151e-13, No Iterations 1000
smoothSolver:  Solving for p, Initial residual = 0.0421613, Final residual = 1.06352e-11, No Iterations 1000
diagonal:  Solving for rho, Initial residual = 0, Final residual = 0, No Iterations 0
time step continuity errors : sum local = 5.12172e-15, global = 2.23684e-15, cumulative = 1.24868e-13
PIMPLE: iteration 2
smoothSolver:  Solving for Ux, Initial residual = 1.50954e-06, Final residual = 3.29973e-16, No Iterations 3
smoothSolver:  Solving for Uy, Initial residual = 2.48724e-06, Final residual = 4.58528e-16, No Iterations 3
smoothSolver:  Solving for e, Initial residual = 0.00347561, Final residual = 5.97678e-13, No Iterations 1000
smoothSolver:  Solving for p, Initial residual = 0.0016557, Final residual = 1.04571e-11, No Iterations 1000
diagonal:  Solving for rho, Initial residual = 0, Final residual = 0, No Iterations 0
time step continuity errors : sum local = 4.77743e-15, global = 1.50443e-15, cumulative = 1.26373e-13
ExecutionTime = 55.22 s  ClockTime = 70 s

Time = 0.00825

Courant Number mean: 0.0493206 max: 0.420765
diagonal:  Solving for rho, Initial residual = 0, Final residual = 0, No Iterations 0
PIMPLE: iteration 1
smoothSolver:  Solving for Ux, Initial residual = 0.000165296, Final residual = 8.8778e-17, No Iterations 4
smoothSolver:  Solving for Uy, Initial residual = 0.000251771, Final residual = 6.6126e-17, No Iterations 4
smoothSolver:  Solving for e, Initial residual = 0.0229293, Final residual = 5.86838e-13, No Iterations 1000
smoothSolver:  Solving for p, Initial residual = 0.0413051, Final residual = 1.06366e-11, No Iterations 1000
diagonal:  Solving for rho, Initial residual = 0, Final residual = 0, No Iterations 0
time step continuity errors : sum local = 5.18397e-15, global = 2.32291e-15, cumulative = 1.28696e-13
PIMPLE: iteration 2
smoothSolver:  Solving for Ux, Initial residual = 1.48251e-06, Final residual = 3.52655e-16, No Iterations 3
smoothSolver:  Solving for Uy, Initial residual = 2.45e-06, Final residual = 4.52922e-16, No Iterations 3
smoothSolver:  Solving for e, Initial residual = 0.00333995, Final residual = 5.94448e-13, No Iterations 1000
smoothSolver:  Solving for p, Initial residual = 0.00161286, Final residual = 1.0336e-11, No Iterations 1000
diagonal:  Solving for rho, Initial residual = 0, Final residual = 0, No Iterations 0
time step continuity errors : sum local = 4.94545e-15, global = 1.64779e-15, cumulative = 1.30344e-13
ExecutionTime = 56.95 s  ClockTime = 73 s

Time = 0.0085

Courant Number mean: 0.0493197 max: 0.419071
diagonal:  Solving for rho, Initial residual = 0, Final residual = 0, No Iterations 0
PIMPLE: iteration 1
smoothSolver:  Solving for Ux, Initial residual = 0.000162963, Final residual = 8.48157e-17, No Iterations 4
smoothSolver:  Solving for Uy, Initial residual = 0.00024816, Final residual = 6.19515e-17, No Iterations 4
smoothSolver:  Solving for e, Initial residual = 0.0224771, Final residual = 5.87188e-13, No Iterations 1000
smoothSolver:  Solving for p, Initial residual = 0.0405598, Final residual = 1.07846e-11, No Iterations 1000
diagonal:  Solving for rho, Initial residual = 0, Final residual = 0, No Iterations 0
time step continuity errors : sum local = 5.32543e-15, global = 2.48911e-15, cumulative = 1.32833e-13
PIMPLE: iteration 2
smoothSolver:  Solving for Ux, Initial residual = 1.45647e-06, Final residual = 3.15701e-16, No Iterations 3
smoothSolver:  Solving for Uy, Initial residual = 2.41879e-06, Final residual = 3.97198e-16, No Iterations 3
smoothSolver:  Solving for e, Initial residual = 0.0032494, Final residual = 5.89666e-13, No Iterations 1000
smoothSolver:  Solving for p, Initial residual = 0.00158281, Final residual = 1.07124e-11, No Iterations 1000
diagonal:  Solving for rho, Initial residual = 0, Final residual = 0, No Iterations 0
time step continuity errors : sum local = 4.9107e-15, global = 1.74251e-15, cumulative = 1.34575e-13
ExecutionTime = 58.67 s  ClockTime = 76 s

Time = 0.00875

Courant Number mean: 0.0493187 max: 0.417229
diagonal:  Solving for rho, Initial residual = 0, Final residual = 0, No Iterations 0
PIMPLE: iteration 1
smoothSolver:  Solving for Ux, Initial residual = 0.000160922, Final residual = 8.49084e-17, No Iterations 4
smoothSolver:  Solving for Uy, Initial residual = 0.000244949, Final residual = 5.64585e-17, No Iterations 4
smoothSolver:  Solving for e, Initial residual = 0.0220412, Final residual = 5.89016e-13, No Iterations 1000
smoothSolver:  Solving for p, Initial residual = 0.0397539, Final residual = 1.0977e-11, No Iterations 1000
diagonal:  Solving for rho, Initial residual = 0, Final residual = 0, No Iterations 0
time step continuity errors : sum local = 5.53359e-15, global = 2.70587e-15, cumulative = 1.37281e-13
PIMPLE: iteration 2
smoothSolver:  Solving for Ux, Initial residual = 1.4519e-06, Final residual = 3.0744e-16, No Iterations 3
smoothSolver:  Solving for Uy, Initial residual = 2.36383e-06, Final residual = 3.64328e-16, No Iterations 3
smoothSolver:  Solving for e, Initial residual = 0.00312977, Final residual = 5.97362e-13, No Iterations 1000
smoothSolver:  Solving for p, Initial residual = 0.00154073, Final residual = 1.05295e-11, No Iterations 1000
diagonal:  Solving for rho, Initial residual = 0, Final residual = 0, No Iterations 0
time step continuity errors : sum local = 4.97022e-15, global = 1.43689e-15, cumulative = 1.38718e-13
ExecutionTime = 60.4 s  ClockTime = 78 s

Time = 0.009

Courant Number mean: 0.0493178 max: 0.415244
diagonal:  Solving for rho, Initial residual = 0, Final residual = 0, No Iterations 0
PIMPLE: iteration 1
smoothSolver:  Solving for Ux, Initial residual = 0.000158628, Final residual = 8.25242e-17, No Iterations 4
smoothSolver:  Solving for Uy, Initial residual = 0.000241391, Final residual = 5.45101e-17, No Iterations 4
smoothSolver:  Solving for e, Initial residual = 0.0215811, Final residual = 5.83527e-13, No Iterations 1000
smoothSolver:  Solving for p, Initial residual = 0.0391205, Final residual = 1.07175e-11, No Iterations 1000
diagonal:  Solving for rho, Initial residual = 0, Final residual = 0, No Iterations 0
time step continuity errors : sum local = 5.35786e-15, global = 2.62308e-15, cumulative = 1.41341e-13
PIMPLE: iteration 2
smoothSolver:  Solving for Ux, Initial residual = 1.38645e-06, Final residual = 2.89679e-16, No Iterations 3
smoothSolver:  Solving for Uy, Initial residual = 2.2905e-06, Final residual = 3.29683e-16, No Iterations 3
smoothSolver:  Solving for e, Initial residual = 0.00301781, Final residual = 5.68201e-13, No Iterations 1000
smoothSolver:  Solving for p, Initial residual = 0.00147389, Final residual = 1.03671e-11, No Iterations 1000
diagonal:  Solving for rho, Initial residual = 0, Final residual = 0, No Iterations 0
time step continuity errors : sum local = 4.8365e-15, global = 1.8204e-15, cumulative = 1.43161e-13
ExecutionTime = 62.15 s  ClockTime = 80 s

Time = 0.00925

Courant Number mean: 0.0493169 max: 0.413145
diagonal:  Solving for rho, Initial residual = 0, Final residual = 0, No Iterations 0
PIMPLE: iteration 1
smoothSolver:  Solving for Ux, Initial residual = 0.000156561, Final residual = 8.03407e-17, No Iterations 4
smoothSolver:  Solving for Uy, Initial residual = 0.000237732, Final residual = 5.16687e-17, No Iterations 4
smoothSolver:  Solving for e, Initial residual = 0.0211238, Final residual = 5.88236e-13, No Iterations 1000
smoothSolver:  Solving for p, Initial residual = 0.0384941, Final residual = 1.07434e-11, No Iterations 1000
diagonal:  Solving for rho, Initial residual = 0, Final residual = 0, No Iterations 0
time step continuity errors : sum local = 5.1805e-15, global = 2.22242e-15, cumulative = 1.45384e-13
PIMPLE: iteration 2
smoothSolver:  Solving for Ux, Initial residual = 1.36052e-06, Final residual = 2.69872e-16, No Iterations 3
smoothSolver:  Solving for Uy, Initial residual = 2.24797e-06, Final residual = 3.06638e-16, No Iterations 3
smoothSolver:  Solving for e, Initial residual = 0.00291127, Final residual = 5.75694e-13, No Iterations 1000
smoothSolver:  Solving for p, Initial residual = 0.00145812, Final residual = 1.03227e-11, No Iterations 1000
diagonal:  Solving for rho, Initial residual = 0, Final residual = 0, No Iterations 0
time step continuity errors : sum local = 4.88301e-15, global = 1.52938e-15, cumulative = 1.46913e-13
ExecutionTime = 63.85 s  ClockTime = 82 s

Time = 0.0095

Courant Number mean: 0.0493158 max: 0.410944
diagonal:  Solving for rho, Initial residual = 0, Final residual = 0, No Iterations 0
PIMPLE: iteration 1
smoothSolver:  Solving for Ux, Initial residual = 0.000154644, Final residual = 8.24761e-17, No Iterations 4
smoothSolver:  Solving for Uy, Initial residual = 0.000234328, Final residual = 4.98087e-17, No Iterations 4
smoothSolver:  Solving for e, Initial residual = 0.0207408, Final residual = 5.73028e-13, No Iterations 1000
smoothSolver:  Solving for p, Initial residual = 0.0379067, Final residual = 1.04683e-11, No Iterations 1000
diagonal:  Solving for rho, Initial residual = 0, Final residual = 0, No Iterations 0
time step continuity errors : sum local = 5.28129e-15, global = 2.58131e-15, cumulative = 1.49495e-13
PIMPLE: iteration 2
smoothSolver:  Solving for Ux, Initial residual = 1.35947e-06, Final residual = 2.69299e-16, No Iterations 3
smoothSolver:  Solving for Uy, Initial residual = 2.24785e-06, Final residual = 3.08212e-16, No Iterations 3
smoothSolver:  Solving for e, Initial residual = 0.00283205, Final residual = 5.54124e-13, No Iterations 1000
smoothSolver:  Solving for p, Initial residual = 0.00141783, Final residual = 1.04639e-11, No Iterations 1000
diagonal:  Solving for rho, Initial residual = 0, Final residual = 0, No Iterations 0
time step continuity errors : sum local = 4.97284e-15, global = 1.68371e-15, cumulative = 1.51178e-13
ExecutionTime = 65.58 s  ClockTime = 84 s

Time = 0.00975

Courant Number mean: 0.0493147 max: 0.408648
diagonal:  Solving for rho, Initial residual = 0, Final residual = 0, No Iterations 0
PIMPLE: iteration 1
smoothSolver:  Solving for Ux, Initial residual = 0.00015255, Final residual = 7.83122e-17, No Iterations 4
smoothSolver:  Solving for Uy, Initial residual = 0.000231161, Final residual = 4.95728e-17, No Iterations 4
smoothSolver:  Solving for e, Initial residual = 0.0203913, Final residual = 5.52432e-13, No Iterations 1000
smoothSolver:  Solving for p, Initial residual = 0.0369544, Final residual = 1.05031e-11, No Iterations 1000
diagonal:  Solving for rho, Initial residual = 0, Final residual = 0, No Iterations 0
time step continuity errors : sum local = 5.14556e-15, global = 2.31441e-15, cumulative = 1.53493e-13
PIMPLE: iteration 2
smoothSolver:  Solving for Ux, Initial residual = 1.31147e-06, Final residual = 2.34367e-16, No Iterations 3
smoothSolver:  Solving for Uy, Initial residual = 2.15465e-06, Final residual = 2.82893e-16, No Iterations 3
smoothSolver:  Solving for e, Initial residual = 0.00273678, Final residual = 5.47992e-13, No Iterations 1000
smoothSolver:  Solving for p, Initial residual = 0.00137155, Final residual = 1.01085e-11, No Iterations 1000
diagonal:  Solving for rho, Initial residual = 0, Final residual = 0, No Iterations 0
time step continuity errors : sum local = 5.00525e-15, global = 1.63022e-15, cumulative = 1.55123e-13
ExecutionTime = 67.3 s  ClockTime = 87 s

Time = 0.01

Courant Number mean: 0.0493134 max: 0.408609
diagonal:  Solving for rho, Initial residual = 0, Final residual = 0, No Iterations 0
PIMPLE: iteration 1
smoothSolver:  Solving for Ux, Initial residual = 0.000150724, Final residual = 7.80903e-17, No Iterations 4
smoothSolver:  Solving for Uy, Initial residual = 0.000228146, Final residual = 4.67307e-17, No Iterations 4
smoothSolver:  Solving for e, Initial residual = 0.0200261, Final residual = 5.46613e-13, No Iterations 1000
smoothSolver:  Solving for p, Initial residual = 0.0360475, Final residual = 1.02071e-11, No Iterations 1000
diagonal:  Solving for rho, Initial residual = 0, Final residual = 0, No Iterations 0
time step continuity errors : sum local = 5.36493e-15, global = 2.36445e-15, cumulative = 1.57487e-13
PIMPLE: iteration 2
smoothSolver:  Solving for Ux, Initial residual = 1.30756e-06, Final residual = 2.30592e-16, No Iterations 3
smoothSolver:  Solving for Uy, Initial residual = 2.11695e-06, Final residual = 2.52995e-16, No Iterations 3
smoothSolver:  Solving for e, Initial residual = 0.00264712, Final residual = 5.4931e-13, No Iterations 1000
smoothSolver:  Solving for p, Initial residual = 0.00133572, Final residual = 1.02154e-11, No Iterations 1000
diagonal:  Solving for rho, Initial residual = 0, Final residual = 0, No Iterations 0
time step continuity errors : sum local = 4.96959e-15, global = 1.56777e-15, cumulative = 1.59055e-13
ExecutionTime = 69.04 s  ClockTime = 89 s

writeRegisteredObject rhofunc output:
    writing object rho

    writing object phi

Time = 0.01025

Courant Number mean: 0.0493123 max: 0.410894
diagonal:  Solving for rho, Initial residual = 0, Final residual = 0, No Iterations 0
PIMPLE: iteration 1
smoothSolver:  Solving for Ux, Initial residual = 0.00014901, Final residual = 7.73812e-17, No Iterations 4
smoothSolver:  Solving for Uy, Initial residual = 0.00022528, Final residual = 4.55326e-17, No Iterations 4
smoothSolver:  Solving for e, Initial residual = 0.0196308, Final residual = 5.45087e-13, No Iterations 1000
smoothSolver:  Solving for p, Initial residual = 0.0352838, Final residual = 1.02941e-11, No Iterations 1000
diagonal:  Solving for rho, Initial residual = 0, Final residual = 0, No Iterations 0
time step continuity errors : sum local = 5.36133e-15, global = 2.27363e-15, cumulative = 1.61329e-13
PIMPLE: iteration 2
smoothSolver:  Solving for Ux, Initial residual = 1.28276e-06, Final residual = 2.28677e-16, No Iterations 3
smoothSolver:  Solving for Uy, Initial residual = 2.09945e-06, Final residual = 2.53068e-16, No Iterations 3
smoothSolver:  Solving for e, Initial residual = 0.00257499, Final residual = 5.46823e-13, No Iterations 1000
smoothSolver:  Solving for p, Initial residual = 0.00129789, Final residual = 1.0089e-11, No Iterations 1000
diagonal:  Solving for rho, Initial residual = 0, Final residual = 0, No Iterations 0
time step continuity errors : sum local = 4.90829e-15, global = 1.65165e-15, cumulative = 1.6298e-13
ExecutionTime = 70.78 s  ClockTime = 91 s

Time = 0.0105

Courant Number mean: 0.049311 max: 0.413085
diagonal:  Solving for rho, Initial residual = 0, Final residual = 0, No Iterations 0
PIMPLE: iteration 1
smoothSolver:  Solving for Ux, Initial residual = 0.00014718, Final residual = 7.66199e-17, No Iterations 4
smoothSolver:  Solving for Uy, Initial residual = 0.000222499, Final residual = 4.49968e-17, No Iterations 4
smoothSolver:  Solving for e, Initial residual = 0.0192216, Final residual = 5.40169e-13, No Iterations 1000
smoothSolver:  Solving for p, Initial residual = 0.0344817, Final residual = 1.01676e-11, No Iterations 1000
diagonal:  Solving for rho, Initial residual = 0, Final residual = 0, No Iterations 0
time step continuity errors : sum local = 5.27333e-15, global = 2.36664e-15, cumulative = 1.65347e-13
PIMPLE: iteration 2
smoothSolver:  Solving for Ux, Initial residual = 1.25559e-06, Final residual = 2.15092e-16, No Iterations 3
smoothSolver:  Solving for Uy, Initial residual = 2.04182e-06, Final residual = 2.18316e-16, No Iterations 3
smoothSolver:  Solving for e, Initial residual = 0.00250096, Final residual = 5.5002e-13, No Iterations 1000
smoothSolver:  Solving for p, Initial residual = 0.00126369, Final residual = 1.01033e-11, No Iterations 1000
diagonal:  Solving for rho, Initial residual = 0, Final residual = 0, No Iterations 0
time step continuity errors : sum local = 4.89793e-15, global = 1.55592e-15, cumulative = 1.66903e-13
ExecutionTime = 72.48 s  ClockTime = 94 s

Time = 0.01075

Courant Number mean: 0.0493097 max: 0.415174
diagonal:  Solving for rho, Initial residual = 0, Final residual = 0, No Iterations 0
PIMPLE: iteration 1
smoothSolver:  Solving for Ux, Initial residual = 0.00014564, Final residual = 7.805e-17, No Iterations 4
smoothSolver:  Solving for Uy, Initial residual = 0.000219725, Final residual = 4.40776e-17, No Iterations 4
smoothSolver:  Solving for e, Initial residual = 0.0188323, Final residual = 5.45663e-13, No Iterations 1000
smoothSolver:  Solving for p, Initial residual = 0.0335794, Final residual = 1.02606e-11, No Iterations 1000
diagonal:  Solving for rho, Initial residual = 0, Final residual = 0, No Iterations 0
time step continuity errors : sum local = 5.18078e-15, global = 2.39146e-15, cumulative = 1.69294e-13
PIMPLE: iteration 2
smoothSolver:  Solving for Ux, Initial residual = 1.2043e-06, Final residual = 2.01063e-16, No Iterations 3
smoothSolver:  Solving for Uy, Initial residual = 1.99514e-06, Final residual = 2.28943e-16, No Iterations 3
smoothSolver:  Solving for e, Initial residual = 0.00240878, Final residual = 5.3129e-13, No Iterations 1000
smoothSolver:  Solving for p, Initial residual = 0.00121725, Final residual = 1.00305e-11, No Iterations 1000
diagonal:  Solving for rho, Initial residual = 0, Final residual = 0, No Iterations 0
time step continuity errors : sum local = 4.99355e-15, global = 1.62267e-15, cumulative = 1.70917e-13
ExecutionTime = 74.23 s  ClockTime = 96 s

Time = 0.011

Courant Number mean: 0.0493084 max: 0.417181
diagonal:  Solving for rho, Initial residual = 0, Final residual = 0, No Iterations 0
PIMPLE: iteration 1
smoothSolver:  Solving for Ux, Initial residual = 0.000144116, Final residual = 7.65947e-17, No Iterations 4
smoothSolver:  Solving for Uy, Initial residual = 0.000217011, Final residual = 4.3343e-17, No Iterations 4
smoothSolver:  Solving for e, Initial residual = 0.0184771, Final residual = 5.33804e-13, No Iterations 1000
smoothSolver:  Solving for p, Initial residual = 0.0329478, Final residual = 1.02113e-11, No Iterations 1000
diagonal:  Solving for rho, Initial residual = 0, Final residual = 0, No Iterations 0
time step continuity errors : sum local = 5.39311e-15, global = 2.49774e-15, cumulative = 1.73415e-13
PIMPLE: iteration 2
smoothSolver:  Solving for Ux, Initial residual = 1.19375e-06, Final residual = 1.96421e-16, No Iterations 3
smoothSolver:  Solving for Uy, Initial residual = 1.97979e-06, Final residual = 2.18703e-16, No Iterations 3
smoothSolver:  Solving for e, Initial residual = 0.00231928, Final residual = 5.2552e-13, No Iterations 1000
smoothSolver:  Solving for p, Initial residual = 0.00119663, Final residual = 1.00635e-11, No Iterations 1000
diagonal:  Solving for rho, Initial residual = 0, Final residual = 0, No Iterations 0
time step continuity errors : sum local = 4.99404e-15, global = 1.50722e-15, cumulative = 1.74922e-13
ExecutionTime = 75.95 s  ClockTime = 98 s

Time = 0.01125

Courant Number mean: 0.0493071 max: 0.419084
diagonal:  Solving for rho, Initial residual = 0, Final residual = 0, No Iterations 0
PIMPLE: iteration 1
smoothSolver:  Solving for Ux, Initial residual = 0.000142564, Final residual = 7.52594e-17, No Iterations 4
smoothSolver:  Solving for Uy, Initial residual = 0.000214152, Final residual = 4.28769e-17, No Iterations 4
smoothSolver:  Solving for e, Initial residual = 0.0181174, Final residual = 5.26272e-13, No Iterations 1000
smoothSolver:  Solving for p, Initial residual = 0.0321298, Final residual = 1.02927e-11, No Iterations 1000
diagonal:  Solving for rho, Initial residual = 0, Final residual = 0, No Iterations 0
time step continuity errors : sum local = 5.29241e-15, global = 2.20648e-15, cumulative = 1.77129e-13
PIMPLE: iteration 2
smoothSolver:  Solving for Ux, Initial residual = 1.14097e-06, Final residual = 1.94291e-16, No Iterations 3
smoothSolver:  Solving for Uy, Initial residual = 1.88857e-06, Final residual = 2.08287e-16, No Iterations 3
smoothSolver:  Solving for e, Initial residual = 0.00224084, Final residual = 5.20516e-13, No Iterations 1000
smoothSolver:  Solving for p, Initial residual = 0.00116155, Final residual = 1.00736e-11, No Iterations 1000
diagonal:  Solving for rho, Initial residual = 0, Final residual = 0, No Iterations 0
time step continuity errors : sum local = 4.95612e-15, global = 1.41155e-15, cumulative = 1.7854e-13
ExecutionTime = 77.66 s  ClockTime = 100 s

Time = 0.0115

Courant Number mean: 0.0493059 max: 0.420911
diagonal:  Solving for rho, Initial residual = 0, Final residual = 0, No Iterations 0
PIMPLE: iteration 1
smoothSolver:  Solving for Ux, Initial residual = 0.000140921, Final residual = 7.61348e-17, No Iterations 4
smoothSolver:  Solving for Uy, Initial residual = 0.000211593, Final residual = 4.25237e-17, No Iterations 4
smoothSolver:  Solving for e, Initial residual = 0.0177311, Final residual = 5.2175e-13, No Iterations 1000
smoothSolver:  Solving for p, Initial residual = 0.031399, Final residual = 1.03579e-11, No Iterations 1000
diagonal:  Solving for rho, Initial residual = 0, Final residual = 0, No Iterations 0
time step continuity errors : sum local = 5.28383e-15, global = 2.29696e-15, cumulative = 1.80837e-13
PIMPLE: iteration 2
smoothSolver:  Solving for Ux, Initial residual = 1.11457e-06, Final residual = 1.94071e-16, No Iterations 3
smoothSolver:  Solving for Uy, Initial residual = 1.84015e-06, Final residual = 1.98716e-16, No Iterations 3
smoothSolver:  Solving for e, Initial residual = 0.00218174, Final residual = 5.13635e-13, No Iterations 1000
smoothSolver:  Solving for p, Initial residual = 0.00113373, Final residual = 1.00181e-11, No Iterations 1000
diagonal:  Solving for rho, Initial residual = 0, Final residual = 0, No Iterations 0
time step continuity errors : sum local = 4.93215e-15, global = 1.50213e-15, cumulative = 1.82339e-13
ExecutionTime = 79.36 s  ClockTime = 102 s

Time = 0.01175

Courant Number mean: 0.0493047 max: 0.422869
diagonal:  Solving for rho, Initial residual = 0, Final residual = 0, No Iterations 0
PIMPLE: iteration 1
smoothSolver:  Solving for Ux, Initial residual = 0.000139311, Final residual = 7.70103e-17, No Iterations 4
smoothSolver:  Solving for Uy, Initial residual = 0.000208957, Final residual = 4.26942e-17, No Iterations 4
smoothSolver:  Solving for e, Initial residual = 0.0173233, Final residual = 5.22624e-13, No Iterations 1000
smoothSolver:  Solving for p, Initial residual = 0.0307021, Final residual = 1.03212e-11, No Iterations 1000
diagonal:  Solving for rho, Initial residual = 0, Final residual = 0, No Iterations 0
time step continuity errors : sum local = 5.32375e-15, global = 2.42609e-15, cumulative = 1.84765e-13
PIMPLE: iteration 2
smoothSolver:  Solving for Ux, Initial residual = 1.07635e-06, Final residual = 1.90519e-16, No Iterations 3
smoothSolver:  Solving for Uy, Initial residual = 1.82371e-06, Final residual = 1.99898e-16, No Iterations 3
smoothSolver:  Solving for e, Initial residual = 0.00212772, Final residual = 5.11166e-13, No Iterations 1000
smoothSolver:  Solving for p, Initial residual = 0.00111263, Final residual = 1.04047e-11, No Iterations 1000
diagonal:  Solving for rho, Initial residual = 0, Final residual = 0, No Iterations 0
time step continuity errors : sum local = 4.9525e-15, global = 1.49757e-15, cumulative = 1.86263e-13
ExecutionTime = 81.08 s  ClockTime = 104 s

Time = 0.012

Courant Number mean: 0.0493035 max: 0.424833
diagonal:  Solving for rho, Initial residual = 0, Final residual = 0, No Iterations 0
PIMPLE: iteration 1
smoothSolver:  Solving for Ux, Initial residual = 0.000137936, Final residual = 7.62837e-17, No Iterations 4
smoothSolver:  Solving for Uy, Initial residual = 0.000206595, Final residual = 4.29549e-17, No Iterations 4
smoothSolver:  Solving for e, Initial residual = 0.0169069, Final residual = 5.12786e-13, No Iterations 1000
smoothSolver:  Solving for p, Initial residual = 0.0299607, Final residual = 1.02569e-11, No Iterations 1000
diagonal:  Solving for rho, Initial residual = 0, Final residual = 0, No Iterations 0
time step continuity errors : sum local = 5.26603e-15, global = 1.95944e-15, cumulative = 1.88222e-13
PIMPLE: iteration 2
smoothSolver:  Solving for Ux, Initial residual = 1.06187e-06, Final residual = 1.83304e-16, No Iterations 3
smoothSolver:  Solving for Uy, Initial residual = 1.81077e-06, Final residual = 2.15e-16, No Iterations 3
smoothSolver:  Solving for e, Initial residual = 0.00210096, Final residual = 5.09714e-13, No Iterations 1000
smoothSolver:  Solving for p, Initial residual = 0.00110263, Final residual = 9.9857e-12, No Iterations 1000
diagonal:  Solving for rho, Initial residual = 0, Final residual = 0, No Iterations 0
time step continuity errors : sum local = 4.92066e-15, global = 1.34069e-15, cumulative = 1.89563e-13
ExecutionTime = 82.77 s  ClockTime = 107 s

Time = 0.01225

Courant Number mean: 0.0493023 max: 0.426723
diagonal:  Solving for rho, Initial residual = 0, Final residual = 0, No Iterations 0
PIMPLE: iteration 1
smoothSolver:  Solving for Ux, Initial residual = 0.000136295, Final residual = 7.56852e-17, No Iterations 4
smoothSolver:  Solving for Uy, Initial residual = 0.000204449, Final residual = 4.29824e-17, No Iterations 4
smoothSolver:  Solving for e, Initial residual = 0.0165196, Final residual = 5.16917e-13, No Iterations 1000
smoothSolver:  Solving for p, Initial residual = 0.0292893, Final residual = 1.03525e-11, No Iterations 1000
diagonal:  Solving for rho, Initial residual = 0, Final residual = 0, No Iterations 0
time step continuity errors : sum local = 5.27843e-15, global = 2.2476e-15, cumulative = 1.91811e-13
PIMPLE: iteration 2
smoothSolver:  Solving for Ux, Initial residual = 1.00791e-06, Final residual = 1.87834e-16, No Iterations 3
smoothSolver:  Solving for Uy, Initial residual = 1.74313e-06, Final residual = 2.08615e-16, No Iterations 3
smoothSolver:  Solving for e, Initial residual = 0.00207092, Final residual = 5.14687e-13, No Iterations 1000
smoothSolver:  Solving for p, Initial residual = 0.00107967, Final residual = 9.90974e-12, No Iterations 1000
diagonal:  Solving for rho, Initial residual = 0, Final residual = 0, No Iterations 0
time step continuity errors : sum local = 4.85707e-15, global = 1.32959e-15, cumulative = 1.9314e-13
ExecutionTime = 84.45 s  ClockTime = 109 s

Time = 0.0125

Courant Number mean: 0.0493011 max: 0.428539
diagonal:  Solving for rho, Initial residual = 0, Final residual = 0, No Iterations 0
PIMPLE: iteration 1
smoothSolver:  Solving for Ux, Initial residual = 0.000134354, Final residual = 7.45339e-17, No Iterations 4
smoothSolver:  Solving for Uy, Initial residual = 0.000202087, Final residual = 4.30911e-17, No Iterations 4
smoothSolver:  Solving for e, Initial residual = 0.0161441, Final residual = 5.07473e-13, No Iterations 1000
smoothSolver:  Solving for p, Initial residual = 0.0286542, Final residual = 1.02444e-11, No Iterations 1000
diagonal:  Solving for rho, Initial residual = 0, Final residual = 0, No Iterations 0
time step continuity errors : sum local = 5.23963e-15, global = 2.32729e-15, cumulative = 1.95467e-13
PIMPLE: iteration 2
smoothSolver:  Solving for Ux, Initial residual = 9.67702e-07, Final residual = 1.86634e-16, No Iterations 3
smoothSolver:  Solving for Uy, Initial residual = 1.7342e-06, Final residual = 2.10381e-16, No Iterations 3
smoothSolver:  Solving for e, Initial residual = 0.00204696, Final residual = 5.18514e-13, No Iterations 1000
smoothSolver:  Solving for p, Initial residual = 0.00106623, Final residual = 9.93201e-12, No Iterations 1000
diagonal:  Solving for rho, Initial residual = 0, Final residual = 0, No Iterations 0
time step continuity errors : sum local = 5.08357e-15, global = 1.57873e-15, cumulative = 1.97046e-13
ExecutionTime = 86.16 s  ClockTime = 111 s

Time = 0.01275

Courant Number mean: 0.0492999 max: 0.430279
diagonal:  Solving for rho, Initial residual = 0, Final residual = 0, No Iterations 0
PIMPLE: iteration 1
smoothSolver:  Solving for Ux, Initial residual = 0.00013236, Final residual = 7.68604e-17, No Iterations 4
smoothSolver:  Solving for Uy, Initial residual = 0.000199744, Final residual = 4.25576e-17, No Iterations 4
smoothSolver:  Solving for e, Initial residual = 0.0158183, Final residual = 5.20851e-13, No Iterations 1000
smoothSolver:  Solving for p, Initial residual = 0.0281783, Final residual = 1.00785e-11, No Iterations 1000
diagonal:  Solving for rho, Initial residual = 0, Final residual = 0, No Iterations 0
time step continuity errors : sum local = 5.2561e-15, global = 2.18805e-15, cumulative = 1.99234e-13
PIMPLE: iteration 2
smoothSolver:  Solving for Ux, Initial residual = 9.38548e-07, Final residual = 1.95538e-16, No Iterations 3
smoothSolver:  Solving for Uy, Initial residual = 1.6946e-06, Final residual = 2.04472e-16, No Iterations 3
smoothSolver:  Solving for e, Initial residual = 0.00203111, Final residual = 5.10924e-13, No Iterations 1000
smoothSolver:  Solving for p, Initial residual = 0.00106644, Final residual = 9.97302e-12, No Iterations 1000
diagonal:  Solving for rho, Initial residual = 0, Final residual = 0, No Iterations 0
time step continuity errors : sum local = 5.07045e-15, global = 1.27305e-15, cumulative = 2.00507e-13
ExecutionTime = 87.88 s  ClockTime = 113 s

Time = 0.013

Courant Number mean: 0.0492988 max: 0.431939
diagonal:  Solving for rho, Initial residual = 0, Final residual = 0, No Iterations 0
PIMPLE: iteration 1
smoothSolver:  Solving for Ux, Initial residual = 0.000130011, Final residual = 7.42005e-17, No Iterations 4
smoothSolver:  Solving for Uy, Initial residual = 0.000197378, Final residual = 4.35518e-17, No Iterations 4
smoothSolver:  Solving for e, Initial residual = 0.0155259, Final residual = 5.15417e-13, No Iterations 1000
smoothSolver:  Solving for p, Initial residual = 0.0278077, Final residual = 1.02343e-11, No Iterations 1000
diagonal:  Solving for rho, Initial residual = 0, Final residual = 0, No Iterations 0
time step continuity errors : sum local = 5.32146e-15, global = 1.96399e-15, cumulative = 2.02471e-13
PIMPLE: iteration 2
smoothSolver:  Solving for Ux, Initial residual = 9.11639e-07, Final residual = 1.92626e-16, No Iterations 3
smoothSolver:  Solving for Uy, Initial residual = 1.66209e-06, Final residual = 2.12062e-16, No Iterations 3
smoothSolver:  Solving for e, Initial residual = 0.00198192, Final residual = 5.08919e-13, No Iterations 1000
smoothSolver:  Solving for p, Initial residual = 0.00105348, Final residual = 1.0082e-11, No Iterations 1000
diagonal:  Solving for rho, Initial residual = 0, Final residual = 0, No Iterations 0
time step continuity errors : sum local = 4.9679e-15, global = 1.28032e-15, cumulative = 2.03752e-13
ExecutionTime = 89.6 s  ClockTime = 115 s

Time = 0.01325

Courant Number mean: 0.0492977 max: 0.433514
diagonal:  Solving for rho, Initial residual = 0, Final residual = 0, No Iterations 0
PIMPLE: iteration 1
smoothSolver:  Solving for Ux, Initial residual = 0.000127179, Final residual = 7.3948e-17, No Iterations 4
smoothSolver:  Solving for Uy, Initial residual = 0.000195094, Final residual = 4.30642e-17, No Iterations 4
smoothSolver:  Solving for e, Initial residual = 0.0153096, Final residual = 5.20204e-13, No Iterations 1000
smoothSolver:  Solving for p, Initial residual = 0.0277641, Final residual = 1.02879e-11, No Iterations 1000
diagonal:  Solving for rho, Initial residual = 0, Final residual = 0, No Iterations 0
time step continuity errors : sum local = 5.23799e-15, global = 2.08463e-15, cumulative = 2.05836e-13
PIMPLE: iteration 2
smoothSolver:  Solving for Ux, Initial residual = 8.70341e-07, Final residual = 1.88928e-16, No Iterations 3
smoothSolver:  Solving for Uy, Initial residual = 1.65084e-06, Final residual = 2.29919e-16, No Iterations 3
smoothSolver:  Solving for e, Initial residual = 0.0019428, Final residual = 5.19137e-13, No Iterations 1000
smoothSolver:  Solving for p, Initial residual = 0.00103407, Final residual = 1.02025e-11, No Iterations 1000
diagonal:  Solving for rho, Initial residual = 0, Final residual = 0, No Iterations 0
time step continuity errors : sum local = 4.98199e-15, global = 1.36393e-15, cumulative = 2.072e-13
ExecutionTime = 91.31 s  ClockTime = 118 s

[...]
smoothSolver:  Solving for e, Initial residual = 0.00974692, Final residual = 4.34678e-13, No Iterations 1000
smoothSolver:  Solving for p, Initial residual = 0.00954525, Final residual = 4.41074e-12, No Iterations 1000
diagonal:  Solving for rho, Initial residual = 0, Final residual = 0, No Iterations 0
time step continuity errors : sum local = 5.17575e-15, global = 1.21638e-15, cumulative = 5.21887e-13
PIMPLE: iteration 2
smoothSolver:  Solving for Ux, Initial residual = 1.68905e-07, Final residual = 1.27979e-16, No Iterations 3
smoothSolver:  Solving for Uy, Initial residual = 4.95468e-07, Final residual = 9.87578e-17, No Iterations 3
smoothSolver:  Solving for e, Initial residual = 0.000441217, Final residual = 4.29674e-13, No Iterations 1000
smoothSolver:  Solving for p, Initial residual = 9.55563e-05, Final residual = 4.26135e-12, No Iterations 1000
diagonal:  Solving for rho, Initial residual = 0, Final residual = 0, No Iterations 0
time step continuity errors : sum local = 5.05544e-15, global = 6.77718e-16, cumulative = 5.22565e-13
ExecutionTime = 304.68 s  ClockTime = 405 s

Time = 0.04425

Courant Number mean: 0.0491577 max: 0.474282
diagonal:  Solving for rho, Initial residual = 0, Final residual = 0, No Iterations 0
PIMPLE: iteration 1
smoothSolver:  Solving for Ux, Initial residual = 9.7535e-05, Final residual = 8.06745e-17, No Iterations 4
smoothSolver:  Solving for Uy, Initial residual = 8.84902e-05, Final residual = 4.40736e-17, No Iterations 4
smoothSolver:  Solving for e, Initial residual = 0.0097602, Final residual = 4.3475e-13, No Iterations 1000
smoothSolver:  Solving for p, Initial residual = 0.00956508, Final residual = 4.26137e-12, No Iterations 1000
diagonal:  Solving for rho, Initial residual = 0, Final residual = 0, No Iterations 0
time step continuity errors : sum local = 5.26285e-15, global = 1.31316e-15, cumulative = 5.23878e-13
PIMPLE: iteration 2
smoothSolver:  Solving for Ux, Initial residual = 1.67508e-07, Final residual = 1.25964e-16, No Iterations 3
smoothSolver:  Solving for Uy, Initial residual = 5.05312e-07, Final residual = 9.64187e-17, No Iterations 3
smoothSolver:  Solving for e, Initial residual = 0.000416854, Final residual = 4.32956e-13, No Iterations 1000
smoothSolver:  Solving for p, Initial residual = 9.03808e-05, Final residual = 4.2066e-12, No Iterations 1000
diagonal:  Solving for rho, Initial residual = 0, Final residual = 0, No Iterations 0
time step continuity errors : sum local = 5.16151e-15, global = 7.39895e-16, cumulative = 5.24618e-13
ExecutionTime = 306.37 s  ClockTime = 407 s

Time = 0.0445

Courant Number mean: 0.0491553 max: 0.474304
diagonal:  Solving for rho, Initial residual = 0, Final residual = 0, No Iterations 0
PIMPLE: iteration 1
smoothSolver:  Solving for Ux, Initial residual = 9.80928e-05, Final residual = 8.00716e-17, No Iterations 4
smoothSolver:  Solving for Uy, Initial residual = 8.36701e-05, Final residual = 4.31522e-17, No Iterations 4
smoothSolver:  Solving for e, Initial residual = 0.00975845, Final residual = 4.29694e-13, No Iterations 1000
smoothSolver:  Solving for p, Initial residual = 0.00956885, Final residual = 4.24604e-12, No Iterations 1000
diagonal:  Solving for rho, Initial residual = 0, Final residual = 0, No Iterations 0
time step continuity errors : sum local = 5.26299e-15, global = 1.00082e-15, cumulative = 5.25619e-13
PIMPLE: iteration 2
smoothSolver:  Solving for Ux, Initial residual = 1.66882e-07, Final residual = 1.23188e-16, No Iterations 3
smoothSolver:  Solving for Uy, Initial residual = 5.13023e-07, Final residual = 9.57011e-17, No Iterations 3
smoothSolver:  Solving for e, Initial residual = 0.000389758, Final residual = 4.19005e-13, No Iterations 1000
smoothSolver:  Solving for p, Initial residual = 8.46853e-05, Final residual = 4.18828e-12, No Iterations 1000
diagonal:  Solving for rho, Initial residual = 0, Final residual = 0, No Iterations 0
time step continuity errors : sum local = 5.10976e-15, global = 5.57683e-16, cumulative = 5.26176e-13
ExecutionTime = 308.05 s  ClockTime = 409 s

Time = 0.04475

Courant Number mean: 0.0491529 max: 0.474324
diagonal:  Solving for rho, Initial residual = 0, Final residual = 0, No Iterations 0
PIMPLE: iteration 1
smoothSolver:  Solving for Ux, Initial residual = 9.86579e-05, Final residual = 8.12873e-17, No Iterations 4
smoothSolver:  Solving for Uy, Initial residual = 7.88647e-05, Final residual = 4.2837e-17, No Iterations 4
smoothSolver:  Solving for e, Initial residual = 0.00973733, Final residual = 4.27845e-13, No Iterations 1000
smoothSolver:  Solving for p, Initial residual = 0.00955479, Final residual = 4.27405e-12, No Iterations 1000
diagonal:  Solving for rho, Initial residual = 0, Final residual = 0, No Iterations 0
time step continuity errors : sum local = 5.26163e-15, global = 1.14271e-15, cumulative = 5.27319e-13
PIMPLE: iteration 2
smoothSolver:  Solving for Ux, Initial residual = 1.65257e-07, Final residual = 1.23793e-16, No Iterations 3
smoothSolver:  Solving for Uy, Initial residual = 5.19883e-07, Final residual = 9.2198e-17, No Iterations 3
smoothSolver:  Solving for e, Initial residual = 0.000363525, Final residual = 4.27627e-13, No Iterations 1000
smoothSolver:  Solving for p, Initial residual = 7.92635e-05, Final residual = 4.17957e-12, No Iterations 1000
diagonal:  Solving for rho, Initial residual = 0, Final residual = 0, No Iterations 0
time step continuity errors : sum local = 5.12365e-15, global = 8.051e-16, cumulative = 5.28124e-13
ExecutionTime = 309.74 s  ClockTime = 411 s

Time = 0.045

Courant Number mean: 0.0491504 max: 0.474344
diagonal:  Solving for rho, Initial residual = 0, Final residual = 0, No Iterations 0
PIMPLE: iteration 1
smoothSolver:  Solving for Ux, Initial residual = 9.92271e-05, Final residual = 7.86712e-17, No Iterations 4
smoothSolver:  Solving for Uy, Initial residual = 7.43653e-05, Final residual = 4.4468e-17, No Iterations 4
smoothSolver:  Solving for e, Initial residual = 0.00969719, Final residual = 4.24256e-13, No Iterations 1000
smoothSolver:  Solving for p, Initial residual = 0.00951479, Final residual = 4.19561e-12, No Iterations 1000
diagonal:  Solving for rho, Initial residual = 0, Final residual = 0, No Iterations 0
time step continuity errors : sum local = 5.27047e-15, global = 1.21981e-15, cumulative = 5.29344e-13
PIMPLE: iteration 2
smoothSolver:  Solving for Ux, Initial residual = 1.64351e-07, Final residual = 1.20909e-16, No Iterations 3
smoothSolver:  Solving for Uy, Initial residual = 5.227e-07, Final residual = 8.98778e-17, No Iterations 3
smoothSolver:  Solving for e, Initial residual = 0.000339511, Final residual = 4.24332e-13, No Iterations 1000
smoothSolver:  Solving for p, Initial residual = 7.42293e-05, Final residual = 4.16271e-12, No Iterations 1000
diagonal:  Solving for rho, Initial residual = 0, Final residual = 0, No Iterations 0
time step continuity errors : sum local = 5.09471e-15, global = 7.73418e-16, cumulative = 5.30117e-13
ExecutionTime = 311.45 s  ClockTime = 412 s

Time = 0.04525

Courant Number mean: 0.0491479 max: 0.474364
diagonal:  Solving for rho, Initial residual = 0, Final residual = 0, No Iterations 0
PIMPLE: iteration 1
smoothSolver:  Solving for Ux, Initial residual = 9.9794e-05, Final residual = 8.07512e-17, No Iterations 4
smoothSolver:  Solving for Uy, Initial residual = 7.03996e-05, Final residual = 4.34472e-17, No Iterations 4
smoothSolver:  Solving for e, Initial residual = 0.0096403, Final residual = 4.16361e-13, No Iterations 1000
smoothSolver:  Solving for p, Initial residual = 0.00945981, Final residual = 4.17392e-12, No Iterations 1000
diagonal:  Solving for rho, Initial residual = 0, Final residual = 0, No Iterations 0
time step continuity errors : sum local = 5.26538e-15, global = 1.17962e-15, cumulative = 5.31297e-13
PIMPLE: iteration 2
smoothSolver:  Solving for Ux, Initial residual = 1.63436e-07, Final residual = 1.2027e-16, No Iterations 3
smoothSolver:  Solving for Uy, Initial residual = 5.23405e-07, Final residual = 8.87795e-17, No Iterations 3
smoothSolver:  Solving for e, Initial residual = 0.000318555, Final residual = 4.16715e-13, No Iterations 1000
smoothSolver:  Solving for p, Initial residual = 7.02494e-05, Final residual = 4.11362e-12, No Iterations 1000
diagonal:  Solving for rho, Initial residual = 0, Final residual = 0, No Iterations 0
time step continuity errors : sum local = 5.11021e-15, global = 7.32511e-16, cumulative = 5.3203e-13
ExecutionTime = 313.15 s  ClockTime = 414 s

Time = 0.0455

Courant Number mean: 0.0491454 max: 0.474382
diagonal:  Solving for rho, Initial residual = 0, Final residual = 0, No Iterations 0
PIMPLE: iteration 1
smoothSolver:  Solving for Ux, Initial residual = 0.000100387, Final residual = 8.04827e-17, No Iterations 4
smoothSolver:  Solving for Uy, Initial residual = 6.74021e-05, Final residual = 4.37952e-17, No Iterations 4
smoothSolver:  Solving for e, Initial residual = 0.00957215, Final residual = 4.12945e-13, No Iterations 1000
smoothSolver:  Solving for p, Initial residual = 0.00938056, Final residual = 4.06084e-12, No Iterations 1000
diagonal:  Solving for rho, Initial residual = 0, Final residual = 0, No Iterations 0
time step continuity errors : sum local = 5.2092e-15, global = 1.07277e-15, cumulative = 5.33102e-13
PIMPLE: iteration 2
smoothSolver:  Solving for Ux, Initial residual = 1.63034e-07, Final residual = 1.1778e-16, No Iterations 3
smoothSolver:  Solving for Uy, Initial residual = 5.22085e-07, Final residual = 8.54637e-17, No Iterations 3
smoothSolver:  Solving for e, Initial residual = 0.000305462, Final residual = 4.12266e-13, No Iterations 1000
smoothSolver:  Solving for p, Initial residual = 6.8014e-05, Final residual = 4.02695e-12, No Iterations 1000
diagonal:  Solving for rho, Initial residual = 0, Final residual = 0, No Iterations 0
time step continuity errors : sum local = 5.12427e-15, global = 6.71919e-16, cumulative = 5.33774e-13
ExecutionTime = 314.82 s  ClockTime = 416 s

Time = 0.04575

Courant Number mean: 0.0491428 max: 0.4744
diagonal:  Solving for rho, Initial residual = 0, Final residual = 0, No Iterations 0
PIMPLE: iteration 1
smoothSolver:  Solving for Ux, Initial residual = 0.000100967, Final residual = 8.17373e-17, No Iterations 4
smoothSolver:  Solving for Uy, Initial residual = 6.65539e-05, Final residual = 4.37319e-17, No Iterations 4
smoothSolver:  Solving for e, Initial residual = 0.00949063, Final residual = 4.0658e-13, No Iterations 1000
smoothSolver:  Solving for p, Initial residual = 0.00927426, Final residual = 4.12071e-12, No Iterations 1000
diagonal:  Solving for rho, Initial residual = 0, Final residual = 0, No Iterations 0
time step continuity errors : sum local = 5.30608e-15, global = 1.07725e-15, cumulative = 5.34852e-13
PIMPLE: iteration 2
smoothSolver:  Solving for Ux, Initial residual = 1.61674e-07, Final residual = 1.18571e-16, No Iterations 3
smoothSolver:  Solving for Uy, Initial residual = 5.15537e-07, Final residual = 8.39916e-17, No Iterations 3
smoothSolver:  Solving for e, Initial residual = 0.000307831, Final residual = 4.11173e-13, No Iterations 1000
smoothSolver:  Solving for p, Initial residual = 6.90321e-05, Final residual = 3.98548e-12, No Iterations 1000
diagonal:  Solving for rho, Initial residual = 0, Final residual = 0, No Iterations 0
time step continuity errors : sum local = 5.13382e-15, global = 6.75213e-16, cumulative = 5.35527e-13
ExecutionTime = 316.53 s  ClockTime = 418 s

Time = 0.046

Courant Number mean: 0.0491402 max: 0.474417
diagonal:  Solving for rho, Initial residual = 0, Final residual = 0, No Iterations 0
PIMPLE: iteration 1
smoothSolver:  Solving for Ux, Initial residual = 0.000101558, Final residual = 8.05984e-17, No Iterations 4
smoothSolver:  Solving for Uy, Initial residual = 7.01093e-05, Final residual = 4.26418e-17, No Iterations 4
smoothSolver:  Solving for e, Initial residual = 0.00939895, Final residual = 4.0013e-13, No Iterations 1000
smoothSolver:  Solving for p, Initial residual = 0.00915563, Final residual = 4.05331e-12, No Iterations 1000
diagonal:  Solving for rho, Initial residual = 0, Final residual = 0, No Iterations 0
time step continuity errors : sum local = 5.25361e-15, global = 1.24086e-15, cumulative = 5.36768e-13
PIMPLE: iteration 2
smoothSolver:  Solving for Ux, Initial residual = 1.61306e-07, Final residual = 1.15596e-16, No Iterations 3
smoothSolver:  Solving for Uy, Initial residual = 5.06545e-07, Final residual = 8.28018e-17, No Iterations 3
smoothSolver:  Solving for e, Initial residual = 0.000322918, Final residual = 3.97577e-13, No Iterations 1000
smoothSolver:  Solving for p, Initial residual = 7.12461e-05, Final residual = 3.98955e-12, No Iterations 1000
diagonal:  Solving for rho, Initial residual = 0, Final residual = 0, No Iterations 0
time step continuity errors : sum local = 5.20625e-15, global = 8.1482e-16, cumulative = 5.37582e-13
ExecutionTime = 318.24 s  ClockTime = 420 s

Time = 0.04625

Courant Number mean: 0.0491376 max: 0.474434
diagonal:  Solving for rho, Initial residual = 0, Final residual = 0, No Iterations 0
PIMPLE: iteration 1
smoothSolver:  Solving for Ux, Initial residual = 0.000102144, Final residual = 8.09696e-17, No Iterations 4
smoothSolver:  Solving for Uy, Initial residual = 7.50915e-05, Final residual = 4.42045e-17, No Iterations 4
smoothSolver:  Solving for e, Initial residual = 0.00929734, Final residual = 4.06387e-13, No Iterations 1000
smoothSolver:  Solving for p, Initial residual = 0.00902072, Final residual = 3.97432e-12, No Iterations 1000
diagonal:  Solving for rho, Initial residual = 0, Final residual = 0, No Iterations 0
time step continuity errors : sum local = 5.35642e-15, global = 1.04493e-15, cumulative = 5.38627e-13
PIMPLE: iteration 2
smoothSolver:  Solving for Ux, Initial residual = 1.6069e-07, Final residual = 1.15092e-16, No Iterations 3
smoothSolver:  Solving for Uy, Initial residual = 4.9447e-07, Final residual = 8.04719e-17, No Iterations 3
smoothSolver:  Solving for e, Initial residual = 0.000337776, Final residual = 4.03341e-13, No Iterations 1000
smoothSolver:  Solving for p, Initial residual = 7.34415e-05, Final residual = 3.85949e-12, No Iterations 1000
diagonal:  Solving for rho, Initial residual = 0, Final residual = 0, No Iterations 0
time step continuity errors : sum local = 5.17616e-15, global = 6.08425e-16, cumulative = 5.39236e-13
ExecutionTime = 319.96 s  ClockTime = 422 s

Time = 0.0465

Courant Number mean: 0.049135 max: 0.47445
diagonal:  Solving for rho, Initial residual = 0, Final residual = 0, No Iterations 0
PIMPLE: iteration 1
smoothSolver:  Solving for Ux, Initial residual = 0.000102723, Final residual = 8.06186e-17, No Iterations 4
smoothSolver:  Solving for Uy, Initial residual = 7.99958e-05, Final residual = 4.35786e-17, No Iterations 4
smoothSolver:  Solving for e, Initial residual = 0.0091855, Final residual = 3.97807e-13, No Iterations 1000
smoothSolver:  Solving for p, Initial residual = 0.00888079, Final residual = 3.86252e-12, No Iterations 1000
diagonal:  Solving for rho, Initial residual = 0, Final residual = 0, No Iterations 0
time step continuity errors : sum local = 5.25601e-15, global = 1.20699e-15, cumulative = 5.40443e-13
PIMPLE: iteration 2
smoothSolver:  Solving for Ux, Initial residual = 1.59519e-07, Final residual = 1.12691e-16, No Iterations 3
smoothSolver:  Solving for Uy, Initial residual = 4.80601e-07, Final residual = 7.8889e-17, No Iterations 3
smoothSolver:  Solving for e, Initial residual = 0.000353034, Final residual = 3.98995e-13, No Iterations 1000
smoothSolver:  Solving for p, Initial residual = 7.59943e-05, Final residual = 3.77966e-12, No Iterations 1000
diagonal:  Solving for rho, Initial residual = 0, Final residual = 0, No Iterations 0
time step continuity errors : sum local = 5.16609e-15, global = 7.34536e-16, cumulative = 5.41177e-13
ExecutionTime = 321.66 s  ClockTime = 424 s

Time = 0.04675

Courant Number mean: 0.0491323 max: 0.474465
diagonal:  Solving for rho, Initial residual = 0, Final residual = 0, No Iterations 0
PIMPLE: iteration 1
smoothSolver:  Solving for Ux, Initial residual = 0.000103361, Final residual = 8.09458e-17, No Iterations 4
smoothSolver:  Solving for Uy, Initial residual = 8.46534e-05, Final residual = 4.26124e-17, No Iterations 4
smoothSolver:  Solving for e, Initial residual = 0.00906637, Final residual = 3.98384e-13, No Iterations 1000
smoothSolver:  Solving for p, Initial residual = 0.00872802, Final residual = 3.83039e-12, No Iterations 1000
diagonal:  Solving for rho, Initial residual = 0, Final residual = 0, No Iterations 0
time step continuity errors : sum local = 5.24876e-15, global = 1.11952e-15, cumulative = 5.42297e-13
PIMPLE: iteration 2
smoothSolver:  Solving for Ux, Initial residual = 1.58837e-07, Final residual = 1.09925e-16, No Iterations 3
smoothSolver:  Solving for Uy, Initial residual = 4.64452e-07, Final residual = 7.65528e-17, No Iterations 3
smoothSolver:  Solving for e, Initial residual = 0.000365645, Final residual = 3.97619e-13, No Iterations 1000
smoothSolver:  Solving for p, Initial residual = 7.78246e-05, Final residual = 3.68504e-12, No Iterations 1000
diagonal:  Solving for rho, Initial residual = 0, Final residual = 0, No Iterations 0
time step continuity errors : sum local = 5.08874e-15, global = 7.63072e-16, cumulative = 5.4306e-13
ExecutionTime = 323.39 s  ClockTime = 426 s

Time = 0.047

Courant Number mean: 0.0491296 max: 0.474479
diagonal:  Solving for rho, Initial residual = 0, Final residual = 0, No Iterations 0
PIMPLE: iteration 1
smoothSolver:  Solving for Ux, Initial residual = 0.000103981, Final residual = 8.08547e-17, No Iterations 4
smoothSolver:  Solving for Uy, Initial residual = 8.90078e-05, Final residual = 4.33982e-17, No Iterations 4
smoothSolver:  Solving for e, Initial residual = 0.00893693, Final residual = 3.96482e-13, No Iterations 1000
smoothSolver:  Solving for p, Initial residual = 0.00856905, Final residual = 3.80811e-12, No Iterations 1000
diagonal:  Solving for rho, Initial residual = 0, Final residual = 0, No Iterations 0
time step continuity errors : sum local = 5.23846e-15, global = 1.16115e-15, cumulative = 5.44221e-13
PIMPLE: iteration 2
smoothSolver:  Solving for Ux, Initial residual = 1.58393e-07, Final residual = 1.1068e-16, No Iterations 3
smoothSolver:  Solving for Uy, Initial residual = 4.45603e-07, Final residual = 7.51077e-17, No Iterations 3
smoothSolver:  Solving for e, Initial residual = 0.00037556, Final residual = 3.87805e-13, No Iterations 1000
smoothSolver:  Solving for p, Initial residual = 7.92441e-05, Final residual = 3.72349e-12, No Iterations 1000
diagonal:  Solving for rho, Initial residual = 0, Final residual = 0, No Iterations 0
time step continuity errors : sum local = 5.04074e-15, global = 6.96444e-16, cumulative = 5.44917e-13
ExecutionTime = 325.09 s  ClockTime = 428 s

Time = 0.04725

Courant Number mean: 0.0491269 max: 0.474493
diagonal:  Solving for rho, Initial residual = 0, Final residual = 0, No Iterations 0
PIMPLE: iteration 1
smoothSolver:  Solving for Ux, Initial residual = 0.000104579, Final residual = 8.30567e-17, No Iterations 4
smoothSolver:  Solving for Uy, Initial residual = 9.30465e-05, Final residual = 4.25453e-17, No Iterations 4
smoothSolver:  Solving for e, Initial residual = 0.00879928, Final residual = 3.89745e-13, No Iterations 1000
smoothSolver:  Solving for p, Initial residual = 0.00841244, Final residual = 3.75374e-12, No Iterations 1000
diagonal:  Solving for rho, Initial residual = 0, Final residual = 0, No Iterations 0
time step continuity errors : sum local = 5.24998e-15, global = 1.24648e-15, cumulative = 5.46164e-13
PIMPLE: iteration 2
smoothSolver:  Solving for Ux, Initial residual = 1.578e-07, Final residual = 1.08943e-16, No Iterations 3
smoothSolver:  Solving for Uy, Initial residual = 4.24583e-07, Final residual = 7.32671e-17, No Iterations 3
