/*---------------------------------------------------------------------------*\
| =========                 |                                                 |
| \\      /  F ield         | OpenFOAM: The Open Source CFD Toolbox           |
|  \\    /   O peration     | Version:  3.0.x                                 |
|   \\  /    A nd           | Web:      www.OpenFOAM.org                      |
|    \\/     M anipulation  |                                                 |
\*---------------------------------------------------------------------------*/
Build  : 3.0.x-4b5e129783d9
Exec   : sonicFoam
Date   : Dec 13 2016
Time   : 16:10:25
Host   : "alex-VirtualBox"
PID    : 9109
Case   : /home/alex/OpenFOAM/alex-3.0.x/run/SH1_76mps
nProcs : 1
sigFpe : Enabling floating point exception trapping (FOAM_SIGFPE).
fileModificationChecking : Monitoring run-time modified files using timeStampMaster
allowSystemOperations : Allowing user-supplied system call operations

// * * * * * * * * * * * * * * * * * * * * * * * * * * * * * * * * * * * * * //
Create time

Create mesh for time = 0


PIMPLE: no residual control data found. Calculations will employ 2 corrector loops

Reading thermophysical properties

Selecting thermodynamics package 
{
    type            hePsiThermo;
    mixture         pureMixture;
    transport       const;
    thermo          hConst;
    equationOfState perfectGas;
    specie          specie;
    energy          sensibleInternalEnergy;
}

Reading field U

Reading/calculating face flux field phi

Creating turbulence model

Selecting turbulence model type laminar
Creating field kinetic energy K

No MRF models present

No finite volume options present


Starting time loop

Time = 1e-05

Courant Number mean: 0.0761619 max: 0.0762
diagonal:  Solving for rho, Initial residual = 0, Final residual = 0, No Iterations 0
PIMPLE: iteration 1
smoothSolver:  Solving for Ux, Initial residual = 0.999782, Final residual = 5.86966e-08, No Iterations 1000
smoothSolver:  Solving for e, Initial residual = 1, Final residual = 2.77494e-12, No Iterations 1000
smoothSolver:  Solving for p, Initial residual = 1, Final residual = 1.36095e-12, No Iterations 1000
diagonal:  Solving for rho, Initial residual = 0, Final residual = 0, No Iterations 0
time step continuity errors : sum local = 2.05963e-16, global = -1.26281e-16, cumulative = -1.26281e-16
PIMPLE: iteration 2
smoothSolver:  Solving for Ux, Initial residual = 0.011071, Final residual = 5.35073e-14, No Iterations 1000
smoothSolver:  Solving for e, Initial residual = 0.117561, Final residual = 8.25779e-13, No Iterations 1000
smoothSolver:  Solving for p, Initial residual = 0.0338936, Final residual = 3.31407e-13, No Iterations 1000
diagonal:  Solving for rho, Initial residual = 0, Final residual = 0, No Iterations 0
time step continuity errors : sum local = 2.35527e-16, global = -1.99768e-16, cumulative = -3.26049e-16
ExecutionTime = 0.17 s  ClockTime = 0 s

Time = 2e-05

Courant Number mean: 0.0761361 max: 0.0762
diagonal:  Solving for rho, Initial residual = 0, Final residual = 0, No Iterations 0
PIMPLE: iteration 1
smoothSolver:  Solving for Ux, Initial residual = 0.196406, Final residual = 4.33356e-14, No Iterations 1000
smoothSolver:  Solving for e, Initial residual = 0.192078, Final residual = 6.74668e-13, No Iterations 1000
smoothSolver:  Solving for p, Initial residual = 0.199148, Final residual = 3.08098e-13, No Iterations 1000
diagonal:  Solving for rho, Initial residual = 0, Final residual = 0, No Iterations 0
time step continuity errors : sum local = 2.18475e-16, global = -8.44621e-17, cumulative = -4.10511e-16
PIMPLE: iteration 2
smoothSolver:  Solving for Ux, Initial residual = 0.00351581, Final residual = 2.12677e-14, No Iterations 1000
smoothSolver:  Solving for e, Initial residual = 0.0645682, Final residual = 3.92269e-13, No Iterations 1000
smoothSolver:  Solving for p, Initial residual = 0.0128184, Final residual = 1.68963e-13, No Iterations 1000
diagonal:  Solving for rho, Initial residual = 0, Final residual = 0, No Iterations 0
time step continuity errors : sum local = 1.97782e-16, global = -8.29137e-17, cumulative = -4.93424e-16
ExecutionTime = 0.34 s  ClockTime = 0 s

Time = 3e-05

Courant Number mean: 0.0760982 max: 0.0762
diagonal:  Solving for rho, Initial residual = 0, Final residual = 0, No Iterations 0
PIMPLE: iteration 1
smoothSolver:  Solving for Ux, Initial residual = 0.132321, Final residual = 1.83646e-14, No Iterations 1000
smoothSolver:  Solving for e, Initial residual = 0.107352, Final residual = 3.43765e-13, No Iterations 1000
smoothSolver:  Solving for p, Initial residual = 0.110931, Final residual = 1.69069e-13, No Iterations 1000
diagonal:  Solving for rho, Initial residual = 0, Final residual = 0, No Iterations 0
time step continuity errors : sum local = 1.90588e-16, global = -4.3917e-17, cumulative = -5.37341e-16
PIMPLE: iteration 2
smoothSolver:  Solving for Ux, Initial residual = 0.00238311, Final residual = 1.1803e-14, No Iterations 1000
smoothSolver:  Solving for e, Initial residual = 0.0304345, Final residual = 2.61748e-13, No Iterations 1000
smoothSolver:  Solving for p, Initial residual = 0.00701225, Final residual = 1.20365e-13, No Iterations 1000
diagonal:  Solving for rho, Initial residual = 0, Final residual = 0, No Iterations 0
time step continuity errors : sum local = 1.9453e-16, global = -7.20689e-17, cumulative = -6.0941e-16
ExecutionTime = 0.5 s  ClockTime = 0 s

Time = 4e-05

Courant Number mean: 0.0760582 max: 0.0762
diagonal:  Solving for rho, Initial residual = 0, Final residual = 0, No Iterations 0
PIMPLE: iteration 1
smoothSolver:  Solving for Ux, Initial residual = 0.0970379, Final residual = 1.04659e-14, No Iterations 1000
smoothSolver:  Solving for e, Initial residual = 0.0743641, Final residual = 2.28278e-13, No Iterations 1000
smoothSolver:  Solving for p, Initial residual = 0.0768775, Final residual = 1.14905e-13, No Iterations 1000
diagonal:  Solving for rho, Initial residual = 0, Final residual = 0, No Iterations 0
time step continuity errors : sum local = 2.05634e-16, global = -5.81292e-17, cumulative = -6.6754e-16
PIMPLE: iteration 2
smoothSolver:  Solving for Ux, Initial residual = 0.00191479, Final residual = 7.59281e-15, No Iterations 1000
smoothSolver:  Solving for e, Initial residual = 0.0213553, Final residual = 1.92579e-13, No Iterations 1000
smoothSolver:  Solving for p, Initial residual = 0.00461805, Final residual = 8.99714e-14, No Iterations 1000
diagonal:  Solving for rho, Initial residual = 0, Final residual = 0, No Iterations 0
time step continuity errors : sum local = 1.95782e-16, global = -7.30486e-17, cumulative = -7.40588e-16
ExecutionTime = 0.66 s  ClockTime = 0 s

Time = 5e-05

Courant Number mean: 0.0760167 max: 0.0762
diagonal:  Solving for rho, Initial residual = 0, Final residual = 0, No Iterations 0
PIMPLE: iteration 1
smoothSolver:  Solving for Ux, Initial residual = 0.0755146, Final residual = 7.39879e-15, No Iterations 1000
smoothSolver:  Solving for e, Initial residual = 0.0567918, Final residual = 1.83797e-13, No Iterations 1000
smoothSolver:  Solving for p, Initial residual = 0.0588211, Final residual = 8.15934e-14, No Iterations 1000
diagonal:  Solving for rho, Initial residual = 0, Final residual = 0, No Iterations 0
time step continuity errors : sum local = 1.97315e-16, global = -5.40434e-17, cumulative = -7.94632e-16
PIMPLE: iteration 2
smoothSolver:  Solving for Ux, Initial residual = 0.00159986, Final residual = 6.00181e-15, No Iterations 1000
smoothSolver:  Solving for e, Initial residual = 0.0159611, Final residual = 1.51379e-13, No Iterations 1000
smoothSolver:  Solving for p, Initial residual = 0.00335771, Final residual = 7.7283e-14, No Iterations 1000
diagonal:  Solving for rho, Initial residual = 0, Final residual = 0, No Iterations 0
time step continuity errors : sum local = 1.92107e-16, global = -7.78281e-17, cumulative = -8.7246e-16
ExecutionTime = 0.83 s  ClockTime = 0 s

Time = 6e-05

Courant Number mean: 0.075969 max: 0.0762
diagonal:  Solving for rho, Initial residual = 0, Final residual = 0, No Iterations 0
PIMPLE: iteration 1
smoothSolver:  Solving for Ux, Initial residual = 0.0600421, Final residual = 5.56687e-15, No Iterations 1000
smoothSolver:  Solving for e, Initial residual = 0.0460545, Final residual = 1.54062e-13, No Iterations 1000
smoothSolver:  Solving for p, Initial residual = 0.0492183, Final residual = 7.11508e-14, No Iterations 1000
diagonal:  Solving for rho, Initial residual = 0, Final residual = 0, No Iterations 0
time step continuity errors : sum local = 1.98003e-16, global = -6.26237e-17, cumulative = -9.35083e-16
PIMPLE: iteration 2
smoothSolver:  Solving for Ux, Initial residual = 0.0011996, Final residual = 4.92196e-15, No Iterations 1000
smoothSolver:  Solving for e, Initial residual = 0.0127206, Final residual = 1.31282e-13, No Iterations 1000
smoothSolver:  Solving for p, Initial residual = 0.00268606, Final residual = 5.70967e-14, No Iterations 1000
diagonal:  Solving for rho, Initial residual = 0, Final residual = 0, No Iterations 0
time step continuity errors : sum local = 1.96878e-16, global = -8.03553e-17, cumulative = -1.01544e-15
ExecutionTime = 0.99 s  ClockTime = 1 s

Time = 7e-05

Courant Number mean: 0.0759197 max: 0.0762
diagonal:  Solving for rho, Initial residual = 0, Final residual = 0, No Iterations 0
PIMPLE: iteration 1
smoothSolver:  Solving for Ux, Initial residual = 0.0488644, Final residual = 4.24538e-15, No Iterations 1000
smoothSolver:  Solving for e, Initial residual = 0.038798, Final residual = 1.23918e-13, No Iterations 1000
smoothSolver:  Solving for p, Initial residual = 0.0466379, Final residual = 6.09232e-14, No Iterations 1000
diagonal:  Solving for rho, Initial residual = 0, Final residual = 0, No Iterations 0
time step continuity errors : sum local = 1.99395e-16, global = -5.86788e-17, cumulative = -1.07412e-15
PIMPLE: iteration 2
smoothSolver:  Solving for Ux, Initial residual = 0.000818142, Final residual = 4.11001e-15, No Iterations 1000
smoothSolver:  Solving for e, Initial residual = 0.0105173, Final residual = 1.05822e-13, No Iterations 1000
smoothSolver:  Solving for p, Initial residual = 0.00216814, Final residual = 5.43344e-14, No Iterations 1000
diagonal:  Solving for rho, Initial residual = 0, Final residual = 0, No Iterations 0
time step continuity errors : sum local = 1.83776e-16, global = -6.66997e-17, cumulative = -1.14082e-15
ExecutionTime = 1.16 s  ClockTime = 1 s

Time = 8e-05

Courant Number mean: 0.0758727 max: 0.0762
diagonal:  Solving for rho, Initial residual = 0, Final residual = 0, No Iterations 0
PIMPLE: iteration 1
smoothSolver:  Solving for Ux, Initial residual = 0.0401692, Final residual = 3.68324e-15, No Iterations 1000
smoothSolver:  Solving for e, Initial residual = 0.0364507, Final residual = 1.07152e-13, No Iterations 1000
smoothSolver:  Solving for p, Initial residual = 0.042137, Final residual = 5.03296e-14, No Iterations 1000
diagonal:  Solving for rho, Initial residual = 0, Final residual = 0, No Iterations 0
time step continuity errors : sum local = 1.75179e-16, global = -5.89558e-17, cumulative = -1.19977e-15
PIMPLE: iteration 2
smoothSolver:  Solving for Ux, Initial residual = 0.000665294, Final residual = 3.24168e-15, No Iterations 1000
smoothSolver:  Solving for e, Initial residual = 0.00890535, Final residual = 9.879e-14, No Iterations 1000
smoothSolver:  Solving for p, Initial residual = 0.00184256, Final residual = 4.38682e-14, No Iterations 1000
diagonal:  Solving for rho, Initial residual = 0, Final residual = 0, No Iterations 0
time step continuity errors : sum local = 1.89812e-16, global = -6.65539e-17, cumulative = -1.26633e-15
ExecutionTime = 1.32 s  ClockTime = 1 s

Time = 9e-05

Courant Number mean: 0.0758281 max: 0.0762
diagonal:  Solving for rho, Initial residual = 0, Final residual = 0, No Iterations 0
PIMPLE: iteration 1
smoothSolver:  Solving for Ux, Initial residual = 0.0334628, Final residual = 3.18806e-15, No Iterations 1000
smoothSolver:  Solving for e, Initial residual = 0.0341189, Final residual = 9.66115e-14, No Iterations 1000
smoothSolver:  Solving for p, Initial residual = 0.0377369, Final residual = 4.52204e-14, No Iterations 1000
diagonal:  Solving for rho, Initial residual = 0, Final residual = 0, No Iterations 0
time step continuity errors : sum local = 1.89657e-16, global = -5.06503e-17, cumulative = -1.31698e-15
PIMPLE: iteration 2
smoothSolver:  Solving for Ux, Initial residual = 0.000551328, Final residual = 2.97891e-15, No Iterations 1000
smoothSolver:  Solving for e, Initial residual = 0.00745604, Final residual = 8.65605e-14, No Iterations 1000
smoothSolver:  Solving for p, Initial residual = 0.00150327, Final residual = 4.09463e-14, No Iterations 1000
diagonal:  Solving for rho, Initial residual = 0, Final residual = 0, No Iterations 0
time step continuity errors : sum local = 1.85577e-16, global = -5.55746e-17, cumulative = -1.37255e-15
ExecutionTime = 1.48 s  ClockTime = 1 s

Time = 0.0001

Courant Number mean: 0.0757822 max: 0.0762
diagonal:  Solving for rho, Initial residual = 0, Final residual = 0, No Iterations 0
PIMPLE: iteration 1
smoothSolver:  Solving for Ux, Initial residual = 0.0283112, Final residual = 2.96548e-15, No Iterations 1000
smoothSolver:  Solving for e, Initial residual = 0.0309819, Final residual = 8.27308e-14, No Iterations 1000
smoothSolver:  Solving for p, Initial residual = 0.0320218, Final residual = 4.21378e-14, No Iterations 1000
diagonal:  Solving for rho, Initial residual = 0, Final residual = 0, No Iterations 0
time step continuity errors : sum local = 1.933e-16, global = -5.57111e-17, cumulative = -1.42826e-15
PIMPLE: iteration 2
smoothSolver:  Solving for Ux, Initial residual = 0.000502464, Final residual = 2.67021e-15, No Iterations 1000
smoothSolver:  Solving for e, Initial residual = 0.00785704, Final residual = 7.71729e-14, No Iterations 1000
smoothSolver:  Solving for p, Initial residual = 0.00152884, Final residual = 3.59196e-14, No Iterations 1000
diagonal:  Solving for rho, Initial residual = 0, Final residual = 0, No Iterations 0
time step continuity errors : sum local = 1.95551e-16, global = -6.38708e-17, cumulative = -1.49213e-15
ExecutionTime = 1.64 s  ClockTime = 1 s

Time = 0.00011

Courant Number mean: 0.0757324 max: 0.0762
diagonal:  Solving for rho, Initial residual = 0, Final residual = 0, No Iterations 0
PIMPLE: iteration 1
smoothSolver:  Solving for Ux, Initial residual = 0.0268277, Final residual = 2.77581e-15, No Iterations 1000
smoothSolver:  Solving for e, Initial residual = 0.0268869, Final residual = 7.72591e-14, No Iterations 1000
smoothSolver:  Solving for p, Initial residual = 0.027447, Final residual = 3.61584e-14, No Iterations 1000
diagonal:  Solving for rho, Initial residual = 0, Final residual = 0, No Iterations 0
time step continuity errors : sum local = 1.85408e-16, global = -3.93887e-17, cumulative = -1.53152e-15
PIMPLE: iteration 2
smoothSolver:  Solving for Ux, Initial residual = 0.00043742, Final residual = 2.50557e-15, No Iterations 1000
smoothSolver:  Solving for e, Initial residual = 0.00708316, Final residual = 7.25522e-14, No Iterations 1000
smoothSolver:  Solving for p, Initial residual = 0.00136735, Final residual = 3.17256e-14, No Iterations 1000
diagonal:  Solving for rho, Initial residual = 0, Final residual = 0, No Iterations 0
time step continuity errors : sum local = 1.78937e-16, global = -3.82633e-17, cumulative = -1.56979e-15
ExecutionTime = 1.8 s  ClockTime = 2 s

Time = 0.00012

Courant Number mean: 0.0756837 max: 0.0762
diagonal:  Solving for rho, Initial residual = 0, Final residual = 0, No Iterations 0
PIMPLE: iteration 1
smoothSolver:  Solving for Ux, Initial residual = 0.0250611, Final residual = 2.37019e-15, No Iterations 1000
smoothSolver:  Solving for e, Initial residual = 0.0238701, Final residual = 6.66309e-14, No Iterations 1000
smoothSolver:  Solving for p, Initial residual = 0.0247999, Final residual = 3.09652e-14, No Iterations 1000
diagonal:  Solving for rho, Initial residual = 0, Final residual = 0, No Iterations 0
time step continuity errors : sum local = 1.82862e-16, global = -5.73905e-17, cumulative = -1.62718e-15
PIMPLE: iteration 2
smoothSolver:  Solving for Ux, Initial residual = 0.000390373, Final residual = 2.29199e-15, No Iterations 1000
smoothSolver:  Solving for e, Initial residual = 0.00618709, Final residual = 6.32661e-14, No Iterations 1000
smoothSolver:  Solving for p, Initial residual = 0.00117809, Final residual = 3.10078e-14, No Iterations 1000
diagonal:  Solving for rho, Initial residual = 0, Final residual = 0, No Iterations 0
time step continuity errors : sum local = 1.8666e-16, global = -4.51528e-17, cumulative = -1.67233e-15
ExecutionTime = 1.96 s  ClockTime = 2 s

Time = 0.00013

Courant Number mean: 0.0756328 max: 0.0762
diagonal:  Solving for rho, Initial residual = 0, Final residual = 0, No Iterations 0
PIMPLE: iteration 1
smoothSolver:  Solving for Ux, Initial residual = 0.0232883, Final residual = 2.06307e-15, No Iterations 1000
smoothSolver:  Solving for e, Initial residual = 0.0215847, Final residual = 6.0202e-14, No Iterations 1000
smoothSolver:  Solving for p, Initial residual = 0.0235875, Final residual = 2.74845e-14, No Iterations 1000
diagonal:  Solving for rho, Initial residual = 0, Final residual = 0, No Iterations 0
time step continuity errors : sum local = 1.81301e-16, global = -4.48681e-17, cumulative = -1.7172e-15
PIMPLE: iteration 2
smoothSolver:  Solving for Ux, Initial residual = 0.000340919, Final residual = 2.05659e-15, No Iterations 1000
smoothSolver:  Solving for e, Initial residual = 0.00519462, Final residual = 6.16668e-14, No Iterations 1000
smoothSolver:  Solving for p, Initial residual = 0.00100877, Final residual = 2.59078e-14, No Iterations 1000
diagonal:  Solving for rho, Initial residual = 0, Final residual = 0, No Iterations 0
time step continuity errors : sum local = 1.90584e-16, global = -5.80894e-17, cumulative = -1.77529e-15
ExecutionTime = 2.13 s  ClockTime = 2 s

Time = 0.00014

Courant Number mean: 0.0755867 max: 0.0762
diagonal:  Solving for rho, Initial residual = 0, Final residual = 0, No Iterations 0
PIMPLE: iteration 1
smoothSolver:  Solving for Ux, Initial residual = 0.0212611, Final residual = 2.09059e-15, No Iterations 1000
smoothSolver:  Solving for e, Initial residual = 0.0205386, Final residual = 5.74551e-14, No Iterations 1000
smoothSolver:  Solving for p, Initial residual = 0.0216714, Final residual = 2.67775e-14, No Iterations 1000
diagonal:  Solving for rho, Initial residual = 0, Final residual = 0, No Iterations 0
time step continuity errors : sum local = 1.98445e-16, global = -4.26144e-17, cumulative = -1.8179e-15
PIMPLE: iteration 2
smoothSolver:  Solving for Ux, Initial residual = 0.000295681, Final residual = 1.87115e-15, No Iterations 1000
smoothSolver:  Solving for e, Initial residual = 0.00444928, Final residual = 5.91358e-14, No Iterations 1000
smoothSolver:  Solving for p, Initial residual = 0.00087519, Final residual = 2.76619e-14, No Iterations 1000
diagonal:  Solving for rho, Initial residual = 0, Final residual = 0, No Iterations 0
time step continuity errors : sum local = 1.88741e-16, global = -3.88171e-17, cumulative = -1.85672e-15
ExecutionTime = 2.29 s  ClockTime = 2 s

Time = 0.00015

Courant Number mean: 0.0755376 max: 0.0762
diagonal:  Solving for rho, Initial residual = 0, Final residual = 0, No Iterations 0
PIMPLE: iteration 1
smoothSolver:  Solving for Ux, Initial residual = 0.019496, Final residual = 1.78724e-15, No Iterations 1000
smoothSolver:  Solving for e, Initial residual = 0.019001, Final residual = 5.43731e-14, No Iterations 1000
smoothSolver:  Solving for p, Initial residual = 0.0199021, Final residual = 2.64535e-14, No Iterations 1000
diagonal:  Solving for rho, Initial residual = 0, Final residual = 0, No Iterations 0
time step continuity errors : sum local = 1.85773e-16, global = -2.17978e-17, cumulative = -1.87852e-15
PIMPLE: iteration 2
smoothSolver:  Solving for Ux, Initial residual = 0.000268913, Final residual = 1.82631e-15, No Iterations 1000
smoothSolver:  Solving for e, Initial residual = 0.00430984, Final residual = 5.29913e-14, No Iterations 1000
smoothSolver:  Solving for p, Initial residual = 0.000824606, Final residual = 2.40168e-14, No Iterations 1000
diagonal:  Solving for rho, Initial residual = 0, Final residual = 0, No Iterations 0
time step continuity errors : sum local = 1.8718e-16, global = -4.51425e-17, cumulative = -1.92366e-15
ExecutionTime = 2.45 s  ClockTime = 2 s

Time = 0.00016

Courant Number mean: 0.0754902 max: 0.0762
diagonal:  Solving for rho, Initial residual = 0, Final residual = 0, No Iterations 0
PIMPLE: iteration 1
smoothSolver:  Solving for Ux, Initial residual = 0.0181237, Final residual = 1.78209e-15, No Iterations 1000
smoothSolver:  Solving for e, Initial residual = 0.0176696, Final residual = 5.09976e-14, No Iterations 1000
smoothSolver:  Solving for p, Initial residual = 0.0184129, Final residual = 2.30295e-14, No Iterations 1000
diagonal:  Solving for rho, Initial residual = 0, Final residual = 0, No Iterations 0
time step continuity errors : sum local = 1.87869e-16, global = -4.80921e-17, cumulative = -1.97175e-15
PIMPLE: iteration 2
smoothSolver:  Solving for Ux, Initial residual = 0.000243997, Final residual = 1.72617e-15, No Iterations 1000
smoothSolver:  Solving for e, Initial residual = 0.00392822, Final residual = 5.16015e-14, No Iterations 1000
smoothSolver:  Solving for p, Initial residual = 0.000754962, Final residual = 2.24199e-14, No Iterations 1000
diagonal:  Solving for rho, Initial residual = 0, Final residual = 0, No Iterations 0
time step continuity errors : sum local = 1.9954e-16, global = -5.24513e-17, cumulative = -2.0242e-15
ExecutionTime = 2.62 s  ClockTime = 2 s

Time = 0.00017

Courant Number mean: 0.0754418 max: 0.0762
diagonal:  Solving for rho, Initial residual = 0, Final residual = 0, No Iterations 0
PIMPLE: iteration 1
smoothSolver:  Solving for Ux, Initial residual = 0.0169478, Final residual = 1.64256e-15, No Iterations 1000
smoothSolver:  Solving for e, Initial residual = 0.0164759, Final residual = 5.06536e-14, No Iterations 1000
smoothSolver:  Solving for p, Initial residual = 0.0172957, Final residual = 2.26066e-14, No Iterations 1000
diagonal:  Solving for rho, Initial residual = 0, Final residual = 0, No Iterations 0
time step continuity errors : sum local = 1.8448e-16, global = -2.02478e-17, cumulative = -2.04445e-15
PIMPLE: iteration 2
smoothSolver:  Solving for Ux, Initial residual = 0.000220876, Final residual = 1.54884e-15, No Iterations 1000
smoothSolver:  Solving for e, Initial residual = 0.00345056, Final residual = 4.8799e-14, No Iterations 1000
smoothSolver:  Solving for p, Initial residual = 0.000657787, Final residual = 2.00766e-14, No Iterations 1000
diagonal:  Solving for rho, Initial residual = 0, Final residual = 0, No Iterations 0
time step continuity errors : sum local = 1.87573e-16, global = -2.47473e-17, cumulative = -2.0692e-15
ExecutionTime = 2.78 s  ClockTime = 3 s

Time = 0.00018

Courant Number mean: 0.0753943 max: 0.0762
diagonal:  Solving for rho, Initial residual = 0, Final residual = 0, No Iterations 0
PIMPLE: iteration 1
smoothSolver:  Solving for Ux, Initial residual = 0.0159619, Final residual = 1.67066e-15, No Iterations 1000
smoothSolver:  Solving for e, Initial residual = 0.0155854, Final residual = 4.44023e-14, No Iterations 1000
smoothSolver:  Solving for p, Initial residual = 0.0159826, Final residual = 2.09479e-14, No Iterations 1000
diagonal:  Solving for rho, Initial residual = 0, Final residual = 0, No Iterations 0
time step continuity errors : sum local = 1.9487e-16, global = -1.29351e-17, cumulative = -2.08213e-15
PIMPLE: iteration 2
smoothSolver:  Solving for Ux, Initial residual = 0.000203752, Final residual = 1.52404e-15, No Iterations 1000
smoothSolver:  Solving for e, Initial residual = 0.00325379, Final residual = 4.2175e-14, No Iterations 1000
smoothSolver:  Solving for p, Initial residual = 0.000624099, Final residual = 2.00227e-14, No Iterations 1000
diagonal:  Solving for rho, Initial residual = 0, Final residual = 0, No Iterations 0
time step continuity errors : sum local = 1.95011e-16, global = -3.78211e-17, cumulative = -2.11995e-15
ExecutionTime = 2.94 s  ClockTime = 3 s

Time = 0.00019

Courant Number mean: 0.0753457 max: 0.0762
diagonal:  Solving for rho, Initial residual = 0, Final residual = 0, No Iterations 0
PIMPLE: iteration 1
smoothSolver:  Solving for Ux, Initial residual = 0.0150043, Final residual = 1.504e-15, No Iterations 1000
smoothSolver:  Solving for e, Initial residual = 0.014523, Final residual = 4.50464e-14, No Iterations 1000
smoothSolver:  Solving for p, Initial residual = 0.0150014, Final residual = 2.02822e-14, No Iterations 1000
diagonal:  Solving for rho, Initial residual = 0, Final residual = 0, No Iterations 0
time step continuity errors : sum local = 1.8895e-16, global = -3.23353e-17, cumulative = -2.15229e-15
PIMPLE: iteration 2
smoothSolver:  Solving for Ux, Initial residual = 0.000188443, Final residual = 1.38861e-15, No Iterations 1000
smoothSolver:  Solving for e, Initial residual = 0.00301115, Final residual = 4.11943e-14, No Iterations 1000
smoothSolver:  Solving for p, Initial residual = 0.000579077, Final residual = 1.90988e-14, No Iterations 1000
diagonal:  Solving for rho, Initial residual = 0, Final residual = 0, No Iterations 0
time step continuity errors : sum local = 1.83608e-16, global = -2.30565e-17, cumulative = -2.17534e-15
ExecutionTime = 3.1 s  ClockTime = 3 s

Time = 0.0002

Courant Number mean: 0.0752972 max: 0.0762
diagonal:  Solving for rho, Initial residual = 0, Final residual = 0, No Iterations 0
PIMPLE: iteration 1
smoothSolver:  Solving for Ux, Initial residual = 0.0142073, Final residual = 1.42234e-15, No Iterations 1000
smoothSolver:  Solving for e, Initial residual = 0.0136697, Final residual = 3.95344e-14, No Iterations 1000
smoothSolver:  Solving for p, Initial residual = 0.0141313, Final residual = 1.93365e-14, No Iterations 1000
diagonal:  Solving for rho, Initial residual = 0, Final residual = 0, No Iterations 0
time step continuity errors : sum local = 1.8753e-16, global = -3.40197e-17, cumulative = -2.20936e-15
PIMPLE: iteration 2
smoothSolver:  Solving for Ux, Initial residual = 0.000173455, Final residual = 1.34009e-15, No Iterations 1000
smoothSolver:  Solving for e, Initial residual = 0.00284027, Final residual = 4.04704e-14, No Iterations 1000
smoothSolver:  Solving for p, Initial residual = 0.000537559, Final residual = 1.87991e-14, No Iterations 1000
diagonal:  Solving for rho, Initial residual = 0, Final residual = 0, No Iterations 0
time step continuity errors : sum local = 1.95965e-16, global = -1.74316e-17, cumulative = -2.2268e-15
ExecutionTime = 3.26 s  ClockTime = 3 s

Time = 0.00021

Courant Number mean: 0.0752491 max: 0.0762
diagonal:  Solving for rho, Initial residual = 0, Final residual = 0, No Iterations 0
PIMPLE: iteration 1
smoothSolver:  Solving for Ux, Initial residual = 0.0133656, Final residual = 1.31363e-15, No Iterations 1000
smoothSolver:  Solving for e, Initial residual = 0.0129375, Final residual = 3.96879e-14, No Iterations 1000
smoothSolver:  Solving for p, Initial residual = 0.0135494, Final residual = 1.76382e-14, No Iterations 1000
diagonal:  Solving for rho, Initial residual = 0, Final residual = 0, No Iterations 0
time step continuity errors : sum local = 1.82596e-16, global = -2.54426e-17, cumulative = -2.25224e-15
PIMPLE: iteration 2
smoothSolver:  Solving for Ux, Initial residual = 0.000161029, Final residual = 1.29401e-15, No Iterations 1000
smoothSolver:  Solving for e, Initial residual = 0.00256637, Final residual = 3.73452e-14, No Iterations 1000
smoothSolver:  Solving for p, Initial residual = 0.000490117, Final residual = 1.81431e-14, No Iterations 1000
diagonal:  Solving for rho, Initial residual = 0, Final residual = 0, No Iterations 0
time step continuity errors : sum local = 1.90187e-16, global = -1.86954e-17, cumulative = -2.27093e-15
ExecutionTime = 3.42 s  ClockTime = 3 s

Time = 0.00022

Courant Number mean: 0.0752015 max: 0.0762
diagonal:  Solving for rho, Initial residual = 0, Final residual = 0, No Iterations 0
PIMPLE: iteration 1
smoothSolver:  Solving for Ux, Initial residual = 0.0127001, Final residual = 1.21327e-15, No Iterations 1000
smoothSolver:  Solving for e, Initial residual = 0.012449, Final residual = 3.76063e-14, No Iterations 1000
smoothSolver:  Solving for p, Initial residual = 0.0128323, Final residual = 1.74588e-14, No Iterations 1000
diagonal:  Solving for rho, Initial residual = 0, Final residual = 0, No Iterations 0
time step continuity errors : sum local = 1.82442e-16, global = -2.72679e-17, cumulative = -2.2982e-15
PIMPLE: iteration 2
smoothSolver:  Solving for Ux, Initial residual = 0.000149515, Final residual = 1.25638e-15, No Iterations 1000
smoothSolver:  Solving for e, Initial residual = 0.00229245, Final residual = 3.66102e-14, No Iterations 1000
smoothSolver:  Solving for p, Initial residual = 0.000438321, Final residual = 1.65783e-14, No Iterations 1000
diagonal:  Solving for rho, Initial residual = 0, Final residual = 0, No Iterations 0
time step continuity errors : sum local = 1.78787e-16, global = -2.44568e-17, cumulative = -2.32266e-15
ExecutionTime = 3.58 s  ClockTime = 3 s

Time = 0.00023

Courant Number mean: 0.075154 max: 0.0762
diagonal:  Solving for rho, Initial residual = 0, Final residual = 0, No Iterations 0
PIMPLE: iteration 1
smoothSolver:  Solving for Ux, Initial residual = 0.0121001, Final residual = 1.27128e-15, No Iterations 1000
smoothSolver:  Solving for e, Initial residual = 0.0118461, Final residual = 3.52121e-14, No Iterations 1000
smoothSolver:  Solving for p, Initial residual = 0.0121923, Final residual = 1.656e-14, No Iterations 1000
diagonal:  Solving for rho, Initial residual = 0, Final residual = 0, No Iterations 0
time step continuity errors : sum local = 1.83974e-16, global = -3.16227e-17, cumulative = -2.35428e-15
PIMPLE: iteration 2
smoothSolver:  Solving for Ux, Initial residual = 0.000140811, Final residual = 1.18679e-15, No Iterations 1000
smoothSolver:  Solving for e, Initial residual = 0.00221793, Final residual = 3.41771e-14, No Iterations 1000
smoothSolver:  Solving for p, Initial residual = 0.000420962, Final residual = 1.55152e-14, No Iterations 1000
diagonal:  Solving for rho, Initial residual = 0, Final residual = 0, No Iterations 0
time step continuity errors : sum local = 1.9058e-16, global = -2.02385e-17, cumulative = -2.37452e-15
ExecutionTime = 3.75 s  ClockTime = 4 s

Time = 0.00024

Courant Number mean: 0.0751059 max: 0.0762
diagonal:  Solving for rho, Initial residual = 0, Final residual = 0, No Iterations 0
PIMPLE: iteration 1
smoothSolver:  Solving for Ux, Initial residual = 0.0115511, Final residual = 1.12926e-15, No Iterations 1000
smoothSolver:  Solving for e, Initial residual = 0.0112956, Final residual = 3.38698e-14, No Iterations 1000
smoothSolver:  Solving for p, Initial residual = 0.0115182, Final residual = 1.56651e-14, No Iterations 1000
diagonal:  Solving for rho, Initial residual = 0, Final residual = 0, No Iterations 0
time step continuity errors : sum local = 1.82414e-16, global = -1.65831e-17, cumulative = -2.3911e-15
PIMPLE: iteration 2
smoothSolver:  Solving for Ux, Initial residual = 0.000132902, Final residual = 1.18445e-15, No Iterations 1000
smoothSolver:  Solving for e, Initial residual = 0.00210206, Final residual = 3.34299e-14, No Iterations 1000
smoothSolver:  Solving for p, Initial residual = 0.00040003, Final residual = 1.522e-14, No Iterations 1000
diagonal:  Solving for rho, Initial residual = 0, Final residual = 0, No Iterations 0
time step continuity errors : sum local = 1.80306e-16, global = -5.48085e-18, cumulative = -2.39658e-15
ExecutionTime = 3.91 s  ClockTime = 4 s

Time = 0.00025

Courant Number mean: 0.0750577 max: 0.0762
diagonal:  Solving for rho, Initial residual = 0, Final residual = 0, No Iterations 0
PIMPLE: iteration 1
smoothSolver:  Solving for Ux, Initial residual = 0.0110447, Final residual = 1.11251e-15, No Iterations 1000
smoothSolver:  Solving for e, Initial residual = 0.010746, Final residual = 3.14507e-14, No Iterations 1000
smoothSolver:  Solving for p, Initial residual = 0.0110225, Final residual = 1.48233e-14, No Iterations 1000
diagonal:  Solving for rho, Initial residual = 0, Final residual = 0, No Iterations 0
time step continuity errors : sum local = 1.82541e-16, global = -6.04253e-18, cumulative = -2.40263e-15
PIMPLE: iteration 2
smoothSolver:  Solving for Ux, Initial residual = 0.00012512, Final residual = 1.10616e-15, No Iterations 1000
smoothSolver:  Solving for e, Initial residual = 0.00197212, Final residual = 3.10117e-14, No Iterations 1000
smoothSolver:  Solving for p, Initial residual = 0.000370669, Final residual = 1.48433e-14, No Iterations 1000
diagonal:  Solving for rho, Initial residual = 0, Final residual = 0, No Iterations 0
time step continuity errors : sum local = 1.90691e-16, global = -5.48044e-18, cumulative = -2.40811e-15
ExecutionTime = 4.07 s  ClockTime = 4 s

Time = 0.00026

Courant Number mean: 0.0750098 max: 0.0762
diagonal:  Solving for rho, Initial residual = 0, Final residual = 0, No Iterations 0
PIMPLE: iteration 1
smoothSolver:  Solving for Ux, Initial residual = 0.0106217, Final residual = 1.05988e-15, No Iterations 1000
smoothSolver:  Solving for e, Initial residual = 0.0102921, Final residual = 3.20886e-14, No Iterations 1000
smoothSolver:  Solving for p, Initial residual = 0.010561, Final residual = 1.48843e-14, No Iterations 1000
diagonal:  Solving for rho, Initial residual = 0, Final residual = 0, No Iterations 0
time step continuity errors : sum local = 1.82948e-16, global = -3.93437e-18, cumulative = -2.41204e-15
PIMPLE: iteration 2
smoothSolver:  Solving for Ux, Initial residual = 0.000118033, Final residual = 1.04698e-15, No Iterations 1000
smoothSolver:  Solving for e, Initial residual = 0.0018704, Final residual = 3.12722e-14, No Iterations 1000
smoothSolver:  Solving for p, Initial residual = 0.000353575, Final residual = 1.45576e-14, No Iterations 1000
diagonal:  Solving for rho, Initial residual = 0, Final residual = 0, No Iterations 0
time step continuity errors : sum local = 1.84072e-16, global = -1.48944e-17, cumulative = -2.42694e-15
ExecutionTime = 4.24 s  ClockTime = 4 s

Time = 0.00027

Courant Number mean: 0.0749621 max: 0.0762
diagonal:  Solving for rho, Initial residual = 0, Final residual = 0, No Iterations 0
PIMPLE: iteration 1
smoothSolver:  Solving for Ux, Initial residual = 0.010201, Final residual = 1.04463e-15, No Iterations 1000
smoothSolver:  Solving for e, Initial residual = 0.00990293, Final residual = 3.02282e-14, No Iterations 1000
smoothSolver:  Solving for p, Initial residual = 0.0101795, Final residual = 1.42473e-14, No Iterations 1000
diagonal:  Solving for rho, Initial residual = 0, Final residual = 0, No Iterations 0
time step continuity errors : sum local = 1.82934e-16, global = -1.85463e-17, cumulative = -2.44548e-15
PIMPLE: iteration 2
smoothSolver:  Solving for Ux, Initial residual = 0.000111667, Final residual = 9.71038e-16, No Iterations 2
smoothSolver:  Solving for e, Initial residual = 0.00171376, Final residual = 3.09788e-14, No Iterations 1000
smoothSolver:  Solving for p, Initial residual = 0.000326114, Final residual = 1.34397e-14, No Iterations 1000
diagonal:  Solving for rho, Initial residual = 0, Final residual = 0, No Iterations 0
time step continuity errors : sum local = 1.84901e-16, global = -2.64145e-17, cumulative = -2.4719e-15
ExecutionTime = 4.37 s  ClockTime = 4 s

Time = 0.00028

Courant Number mean: 0.0749144 max: 0.0762
diagonal:  Solving for rho, Initial residual = 0, Final residual = 0, No Iterations 0
PIMPLE: iteration 1
smoothSolver:  Solving for Ux, Initial residual = 0.00979343, Final residual = 9.99074e-16, No Iterations 2
smoothSolver:  Solving for e, Initial residual = 0.00954714, Final residual = 2.92855e-14, No Iterations 1000
smoothSolver:  Solving for p, Initial residual = 0.00977741, Final residual = 1.33538e-14, No Iterations 1000
diagonal:  Solving for rho, Initial residual = 0, Final residual = 0, No Iterations 0
time step continuity errors : sum local = 1.94441e-16, global = -1.99499e-17, cumulative = -2.49185e-15
PIMPLE: iteration 2
smoothSolver:  Solving for Ux, Initial residual = 0.000105873, Final residual = 9.43761e-16, No Iterations 2
smoothSolver:  Solving for e, Initial residual = 0.00164022, Final residual = 2.88723e-14, No Iterations 1000
smoothSolver:  Solving for p, Initial residual = 0.000308684, Final residual = 1.35885e-14, No Iterations 1000
diagonal:  Solving for rho, Initial residual = 0, Final residual = 0, No Iterations 0
time step continuity errors : sum local = 1.83623e-16, global = -2.51481e-17, cumulative = -2.51699e-15
ExecutionTime = 4.48 s  ClockTime = 4 s

Time = 0.00029

Courant Number mean: 0.0748667 max: 0.0762
diagonal:  Solving for rho, Initial residual = 0, Final residual = 0, No Iterations 0
PIMPLE: iteration 1
smoothSolver:  Solving for Ux, Initial residual = 0.00941108, Final residual = 9.39046e-16, No Iterations 2
smoothSolver:  Solving for e, Initial residual = 0.00919512, Final residual = 2.81371e-14, No Iterations 1000
smoothSolver:  Solving for p, Initial residual = 0.00941759, Final residual = 1.29581e-14, No Iterations 1000
diagonal:  Solving for rho, Initial residual = 0, Final residual = 0, No Iterations 0
time step continuity errors : sum local = 1.85716e-16, global = -8.70984e-18, cumulative = -2.5257e-15
PIMPLE: iteration 2
smoothSolver:  Solving for Ux, Initial residual = 0.000100785, Final residual = 9.15228e-16, No Iterations 2
smoothSolver:  Solving for e, Initial residual = 0.00156843, Final residual = 2.79038e-14, No Iterations 1000
smoothSolver:  Solving for p, Initial residual = 0.000296323, Final residual = 1.24959e-14, No Iterations 1000
diagonal:  Solving for rho, Initial residual = 0, Final residual = 0, No Iterations 0
time step continuity errors : sum local = 1.87823e-16, global = -5.75973e-18, cumulative = -2.53146e-15
ExecutionTime = 4.59 s  ClockTime = 4 s

Time = 0.0003

Courant Number mean: 0.0748188 max: 0.0762
diagonal:  Solving for rho, Initial residual = 0, Final residual = 0, No Iterations 0
PIMPLE: iteration 1
smoothSolver:  Solving for Ux, Initial residual = 0.00906682, Final residual = 9.07107e-16, No Iterations 2
smoothSolver:  Solving for e, Initial residual = 0.00887097, Final residual = 2.6555e-14, No Iterations 1000
smoothSolver:  Solving for p, Initial residual = 0.00905605, Final residual = 1.23103e-14, No Iterations 1000
diagonal:  Solving for rho, Initial residual = 0, Final residual = 0, No Iterations 0
time step continuity errors : sum local = 1.86966e-16, global = 1.54518e-18, cumulative = -2.52992e-15
PIMPLE: iteration 2
smoothSolver:  Solving for Ux, Initial residual = 9.61056e-05, Final residual = 9.22698e-16, No Iterations 2
smoothSolver:  Solving for e, Initial residual = 0.00148144, Final residual = 2.75623e-14, No Iterations 1000
smoothSolver:  Solving for p, Initial residual = 0.000277928, Final residual = 1.19743e-14, No Iterations 1000
diagonal:  Solving for rho, Initial residual = 0, Final residual = 0, No Iterations 0
time step continuity errors : sum local = 1.8809e-16, global = -1.02544e-17, cumulative = -2.54017e-15
ExecutionTime = 4.7 s  ClockTime = 5 s

Time = 0.00031

Courant Number mean: 0.0747712 max: 0.0762
diagonal:  Solving for rho, Initial residual = 0, Final residual = 0, No Iterations 0
PIMPLE: iteration 1
smoothSolver:  Solving for Ux, Initial residual = 0.00878085, Final residual = 8.85318e-16, No Iterations 2
smoothSolver:  Solving for e, Initial residual = 0.00855926, Final residual = 2.69013e-14, No Iterations 1000
smoothSolver:  Solving for p, Initial residual = 0.0087591, Final residual = 1.25835e-14, No Iterations 1000
diagonal:  Solving for rho, Initial residual = 0, Final residual = 0, No Iterations 0
time step continuity errors : sum local = 1.88638e-16, global = -1.69956e-17, cumulative = -2.55717e-15
PIMPLE: iteration 2
smoothSolver:  Solving for Ux, Initial residual = 9.16639e-05, Final residual = 8.68223e-16, No Iterations 2
smoothSolver:  Solving for e, Initial residual = 0.00142522, Final residual = 2.70178e-14, No Iterations 1000
smoothSolver:  Solving for p, Initial residual = 0.000267557, Final residual = 1.23591e-14, No Iterations 1000
diagonal:  Solving for rho, Initial residual = 0, Final residual = 0, No Iterations 0
time step continuity errors : sum local = 1.8934e-16, global = -1.43269e-17, cumulative = -2.5715e-15
ExecutionTime = 4.81 s  ClockTime = 5 s

Time = 0.00032

Courant Number mean: 0.0747234 max: 0.0762
diagonal:  Solving for rho, Initial residual = 0, Final residual = 0, No Iterations 0
PIMPLE: iteration 1
smoothSolver:  Solving for Ux, Initial residual = 0.00849858, Final residual = 8.91059e-16, No Iterations 2
smoothSolver:  Solving for e, Initial residual = 0.0082804, Final residual = 2.68174e-14, No Iterations 1000
smoothSolver:  Solving for p, Initial residual = 0.00845809, Final residual = 1.16524e-14, No Iterations 1000
diagonal:  Solving for rho, Initial residual = 0, Final residual = 0, No Iterations 0
time step continuity errors : sum local = 1.92696e-16, global = -1.23595e-17, cumulative = -2.58386e-15
PIMPLE: iteration 2
smoothSolver:  Solving for Ux, Initial residual = 8.75883e-05, Final residual = 8.05481e-16, No Iterations 2
smoothSolver:  Solving for e, Initial residual = 0.00134965, Final residual = 2.56765e-14, No Iterations 1000
smoothSolver:  Solving for p, Initial residual = 0.000254519, Final residual = 1.17948e-14, No Iterations 1000
diagonal:  Solving for rho, Initial residual = 0, Final residual = 0, No Iterations 0
time step continuity errors : sum local = 1.81601e-16, global = -4.07303e-18, cumulative = -2.58793e-15
ExecutionTime = 4.92 s  ClockTime = 5 s

Time = 0.00033

Courant Number mean: 0.0746758 max: 0.0762
diagonal:  Solving for rho, Initial residual = 0, Final residual = 0, No Iterations 0
PIMPLE: iteration 1
smoothSolver:  Solving for Ux, Initial residual = 0.00822799, Final residual = 8.37587e-16, No Iterations 2
smoothSolver:  Solving for e, Initial residual = 0.00802188, Final residual = 2.59651e-14, No Iterations 1000
smoothSolver:  Solving for p, Initial residual = 0.00819757, Final residual = 1.14593e-14, No Iterations 1000
diagonal:  Solving for rho, Initial residual = 0, Final residual = 0, No Iterations 0
time step continuity errors : sum local = 2.00125e-16, global = -1.4746e-17, cumulative = -2.60267e-15
PIMPLE: iteration 2
smoothSolver:  Solving for Ux, Initial residual = 8.38106e-05, Final residual = 7.82236e-16, No Iterations 2
smoothSolver:  Solving for e, Initial residual = 0.00129187, Final residual = 2.49095e-14, No Iterations 1000
smoothSolver:  Solving for p, Initial residual = 0.00024106, Final residual = 1.11886e-14, No Iterations 1000
diagonal:  Solving for rho, Initial residual = 0, Final residual = 0, No Iterations 0
time step continuity errors : sum local = 1.76531e-16, global = -4.21316e-19, cumulative = -2.6031e-15
ExecutionTime = 5.02 s  ClockTime = 5 s

Time = 0.00034

Courant Number mean: 0.074628 max: 0.0762
diagonal:  Solving for rho, Initial residual = 0, Final residual = 0, No Iterations 0
PIMPLE: iteration 1
smoothSolver:  Solving for Ux, Initial residual = 0.00796585, Final residual = 8.20296e-16, No Iterations 2
smoothSolver:  Solving for e, Initial residual = 0.00777378, Final residual = 2.4118e-14, No Iterations 1000
smoothSolver:  Solving for p, Initial residual = 0.00794486, Final residual = 1.11715e-14, No Iterations 1000
diagonal:  Solving for rho, Initial residual = 0, Final residual = 0, No Iterations 0
time step continuity errors : sum local = 1.84241e-16, global = -5.89797e-18, cumulative = -2.60899e-15
PIMPLE: iteration 2
smoothSolver:  Solving for Ux, Initial residual = 8.03817e-05, Final residual = 8.12905e-16, No Iterations 2
smoothSolver:  Solving for e, Initial residual = 0.00123785, Final residual = 2.52408e-14, No Iterations 1000
smoothSolver:  Solving for p, Initial residual = 0.000232191, Final residual = 1.08134e-14, No Iterations 1000
diagonal:  Solving for rho, Initial residual = 0, Final residual = 0, No Iterations 0
time step continuity errors : sum local = 1.8396e-16, global = -5.61711e-18, cumulative = -2.61461e-15
ExecutionTime = 5.13 s  ClockTime = 5 s

Time = 0.00035

Courant Number mean: 0.0745806 max: 0.0762
diagonal:  Solving for rho, Initial residual = 0, Final residual = 0, No Iterations 0
PIMPLE: iteration 1
smoothSolver:  Solving for Ux, Initial residual = 0.00772414, Final residual = 7.69391e-16, No Iterations 2
smoothSolver:  Solving for e, Initial residual = 0.00755618, Final residual = 2.42072e-14, No Iterations 1000
smoothSolver:  Solving for p, Initial residual = 0.00770534, Final residual = 1.03293e-14, No Iterations 1000
diagonal:  Solving for rho, Initial residual = 0, Final residual = 0, No Iterations 0
time step continuity errors : sum local = 1.8858e-16, global = 3.2296e-18, cumulative = -2.61138e-15
PIMPLE: iteration 2
smoothSolver:  Solving for Ux, Initial residual = 7.71344e-05, Final residual = 7.73363e-16, No Iterations 2
smoothSolver:  Solving for e, Initial residual = 0.00117569, Final residual = 2.40059e-14, No Iterations 1000
smoothSolver:  Solving for p, Initial residual = 0.000221313, Final residual = 1.03092e-14, No Iterations 1000
diagonal:  Solving for rho, Initial residual = 0, Final residual = 0, No Iterations 0
time step continuity errors : sum local = 1.73275e-16, global = -2.02201e-17, cumulative = -2.6316e-15
ExecutionTime = 5.24 s  ClockTime = 5 s

Time = 0.00036

Courant Number mean: 0.0745328 max: 0.0762
diagonal:  Solving for rho, Initial residual = 0, Final residual = 0, No Iterations 0
PIMPLE: iteration 1
smoothSolver:  Solving for Ux, Initial residual = 0.00749967, Final residual = 7.35152e-16, No Iterations 2
smoothSolver:  Solving for e, Initial residual = 0.00733174, Final residual = 2.32242e-14, No Iterations 1000
smoothSolver:  Solving for p, Initial residual = 0.00748, Final residual = 1.03715e-14, No Iterations 1000
diagonal:  Solving for rho, Initial residual = 0, Final residual = 0, No Iterations 0
time step continuity errors : sum local = 1.75227e-16, global = -3.36976e-18, cumulative = -2.63497e-15
PIMPLE: iteration 2
smoothSolver:  Solving for Ux, Initial residual = 7.41502e-05, Final residual = 7.55069e-16, No Iterations 2
smoothSolver:  Solving for e, Initial residual = 0.00113847, Final residual = 2.21188e-14, No Iterations 1000
smoothSolver:  Solving for p, Initial residual = 0.000212313, Final residual = 1.09491e-14, No Iterations 1000
diagonal:  Solving for rho, Initial residual = 0, Final residual = 0, No Iterations 0
time step continuity errors : sum local = 1.91936e-16, global = -9.12642e-18, cumulative = -2.6441e-15
ExecutionTime = 5.35 s  ClockTime = 5 s

Time = 0.00037

Courant Number mean: 0.0744854 max: 0.0762
diagonal:  Solving for rho, Initial residual = 0, Final residual = 0, No Iterations 0
PIMPLE: iteration 1
smoothSolver:  Solving for Ux, Initial residual = 0.00729726, Final residual = 7.5802e-16, No Iterations 2
smoothSolver:  Solving for e, Initial residual = 0.0071352, Final residual = 2.23345e-14, No Iterations 1000
smoothSolver:  Solving for p, Initial residual = 0.00726738, Final residual = 1.01263e-14, No Iterations 1000
diagonal:  Solving for rho, Initial residual = 0, Final residual = 0, No Iterations 0
time step continuity errors : sum local = 1.74231e-16, global = -1.19336e-17, cumulative = -2.65603e-15
PIMPLE: iteration 2
smoothSolver:  Solving for Ux, Initial residual = 7.1352e-05, Final residual = 7.49684e-16, No Iterations 2
smoothSolver:  Solving for e, Initial residual = 0.00109791, Final residual = 2.27223e-14, No Iterations 1000
smoothSolver:  Solving for p, Initial residual = 0.000205543, Final residual = 9.47514e-15, No Iterations 1000
diagonal:  Solving for rho, Initial residual = 0, Final residual = 0, No Iterations 0
time step continuity errors : sum local = 1.76758e-16, global = -7.72177e-18, cumulative = -2.66375e-15
ExecutionTime = 5.46 s  ClockTime = 5 s

Time = 0.00038

Courant Number mean: 0.0744376 max: 0.0762
diagonal:  Solving for rho, Initial residual = 0, Final residual = 0, No Iterations 0
PIMPLE: iteration 1
smoothSolver:  Solving for Ux, Initial residual = 0.00709568, Final residual = 7.42925e-16, No Iterations 2
smoothSolver:  Solving for e, Initial residual = 0.00693477, Final residual = 2.18537e-14, No Iterations 1000
smoothSolver:  Solving for p, Initial residual = 0.00706506, Final residual = 9.71944e-15, No Iterations 1000
diagonal:  Solving for rho, Initial residual = 0, Final residual = 0, No Iterations 0
time step continuity errors : sum local = 1.75762e-16, global = -1.40385e-18, cumulative = -2.66516e-15
PIMPLE: iteration 2
smoothSolver:  Solving for Ux, Initial residual = 6.87496e-05, Final residual = 7.09938e-16, No Iterations 2
smoothSolver:  Solving for e, Initial residual = 0.00105347, Final residual = 2.0531e-14, No Iterations 1000
smoothSolver:  Solving for p, Initial residual = 0.00019531, Final residual = 9.64936e-15, No Iterations 1000
diagonal:  Solving for rho, Initial residual = 0, Final residual = 0, No Iterations 0
time step continuity errors : sum local = 1.7843e-16, global = -2.09174e-17, cumulative = -2.68607e-15
ExecutionTime = 5.57 s  ClockTime = 5 s

Time = 0.00039

Courant Number mean: 0.0743901 max: 0.0762
diagonal:  Solving for rho, Initial residual = 0, Final residual = 0, No Iterations 0
PIMPLE: iteration 1
smoothSolver:  Solving for Ux, Initial residual = 0.00690869, Final residual = 7.0754e-16, No Iterations 2
smoothSolver:  Solving for e, Initial residual = 0.00675519, Final residual = 2.1645e-14, No Iterations 1000
smoothSolver:  Solving for p, Initial residual = 0.00688184, Final residual = 9.73796e-15, No Iterations 1000
diagonal:  Solving for rho, Initial residual = 0, Final residual = 0, No Iterations 0
time step continuity errors : sum local = 1.801e-16, global = -1.33356e-17, cumulative = -2.69941e-15
PIMPLE: iteration 2
smoothSolver:  Solving for Ux, Initial residual = 6.62782e-05, Final residual = 6.59496e-16, No Iterations 2
smoothSolver:  Solving for e, Initial residual = 0.00102297, Final residual = 2.11174e-14, No Iterations 1000
smoothSolver:  Solving for p, Initial residual = 0.000190462, Final residual = 9.64895e-15, No Iterations 1000
diagonal:  Solving for rho, Initial residual = 0, Final residual = 0, No Iterations 0
time step continuity errors : sum local = 1.81083e-16, global = -9.54547e-18, cumulative = -2.70895e-15
ExecutionTime = 5.68 s  ClockTime = 6 s

Time = 0.0004

Courant Number mean: 0.0743424 max: 0.0762
diagonal:  Solving for rho, Initial residual = 0, Final residual = 0, No Iterations 0
PIMPLE: iteration 1
smoothSolver:  Solving for Ux, Initial residual = 0.00672494, Final residual = 7.02519e-16, No Iterations 2
smoothSolver:  Solving for e, Initial residual = 0.00658087, Final residual = 2.05726e-14, No Iterations 1000
smoothSolver:  Solving for p, Initial residual = 0.00670329, Final residual = 8.99923e-15, No Iterations 1000
diagonal:  Solving for rho, Initial residual = 0, Final residual = 0, No Iterations 0
time step continuity errors : sum local = 1.83877e-16, global = -5.0531e-18, cumulative = -2.71401e-15
PIMPLE: iteration 2
smoothSolver:  Solving for Ux, Initial residual = 6.39793e-05, Final residual = 6.71132e-16, No Iterations 2
smoothSolver:  Solving for e, Initial residual = 0.000971038, Final residual = 2.06237e-14, No Iterations 1000
smoothSolver:  Solving for p, Initial residual = 0.000181682, Final residual = 9.15446e-15, No Iterations 1000
diagonal:  Solving for rho, Initial residual = 0, Final residual = 0, No Iterations 0
time step continuity errors : sum local = 1.82473e-16, global = -2.35811e-17, cumulative = -2.73759e-15
ExecutionTime = 5.79 s  ClockTime = 6 s

Time = 0.00041

Courant Number mean: 0.074295 max: 0.0762
diagonal:  Solving for rho, Initial residual = 0, Final residual = 0, No Iterations 0
PIMPLE: iteration 1
smoothSolver:  Solving for Ux, Initial residual = 0.00656219, Final residual = 6.48194e-16, No Iterations 2
smoothSolver:  Solving for e, Initial residual = 0.00642405, Final residual = 1.96996e-14, No Iterations 1000
smoothSolver:  Solving for p, Initial residual = 0.00653706, Final residual = 9.68656e-15, No Iterations 1000
diagonal:  Solving for rho, Initial residual = 0, Final residual = 0, No Iterations 0
time step continuity errors : sum local = 1.87372e-16, global = -1.75441e-17, cumulative = -2.75513e-15
PIMPLE: iteration 2
smoothSolver:  Solving for Ux, Initial residual = 6.17978e-05, Final residual = 6.76715e-16, No Iterations 2
smoothSolver:  Solving for e, Initial residual = 0.000944425, Final residual = 2.0024e-14, No Iterations 1000
smoothSolver:  Solving for p, Initial residual = 0.000174986, Final residual = 9.13374e-15, No Iterations 1000
diagonal:  Solving for rho, Initial residual = 0, Final residual = 0, No Iterations 0
time step continuity errors : sum local = 1.91301e-16, global = -1.22107e-17, cumulative = -2.76734e-15
ExecutionTime = 5.9 s  ClockTime = 6 s

Time = 0.00042

Courant Number mean: 0.0742473 max: 0.0762
diagonal:  Solving for rho, Initial residual = 0, Final residual = 0, No Iterations 0
PIMPLE: iteration 1
smoothSolver:  Solving for Ux, Initial residual = 0.0064011, Final residual = 6.67977e-16, No Iterations 2
smoothSolver:  Solving for e, Initial residual = 0.00626617, Final residual = 1.94753e-14, No Iterations 1000
smoothSolver:  Solving for p, Initial residual = 0.00637319, Final residual = 9.1822e-15, No Iterations 1000
diagonal:  Solving for rho, Initial residual = 0, Final residual = 0, No Iterations 0
time step continuity errors : sum local = 1.78235e-16, global = -3.19981e-17, cumulative = -2.79934e-15
PIMPLE: iteration 2
smoothSolver:  Solving for Ux, Initial residual = 5.97738e-05, Final residual = 6.66472e-16, No Iterations 2
smoothSolver:  Solving for e, Initial residual = 0.000914001, Final residual = 1.93443e-14, No Iterations 1000
smoothSolver:  Solving for p, Initial residual = 0.000170122, Final residual = 8.85009e-15, No Iterations 1000
diagonal:  Solving for rho, Initial residual = 0, Final residual = 0, No Iterations 0
time step continuity errors : sum local = 1.86375e-16, global = -3.00333e-17, cumulative = -2.82938e-15
ExecutionTime = 6.01 s  ClockTime = 6 s

Time = 0.00043

Courant Number mean: 0.0741999 max: 0.0762
diagonal:  Solving for rho, Initial residual = 0, Final residual = 0, No Iterations 0
PIMPLE: iteration 1
smoothSolver:  Solving for Ux, Initial residual = 0.00625022, Final residual = 6.44535e-16, No Iterations 2
smoothSolver:  Solving for e, Initial residual = 0.00611991, Final residual = 1.96441e-14, No Iterations 1000
smoothSolver:  Solving for p, Initial residual = 0.00622285, Final residual = 9.24604e-15, No Iterations 1000
diagonal:  Solving for rho, Initial residual = 0, Final residual = 0, No Iterations 0
time step continuity errors : sum local = 1.87904e-16, global = -1.33315e-17, cumulative = -2.84271e-15
PIMPLE: iteration 2
smoothSolver:  Solving for Ux, Initial residual = 5.78467e-05, Final residual = 6.04591e-16, No Iterations 2
smoothSolver:  Solving for e, Initial residual = 0.000879321, Final residual = 1.95357e-14, No Iterations 1000
smoothSolver:  Solving for p, Initial residual = 0.000163677, Final residual = 8.61443e-15, No Iterations 1000
diagonal:  Solving for rho, Initial residual = 0, Final residual = 0, No Iterations 0
time step continuity errors : sum local = 1.84396e-16, global = -6.45527e-18, cumulative = -2.84916e-15
ExecutionTime = 6.12 s  ClockTime = 6 s

Time = 0.00044

Courant Number mean: 0.0741522 max: 0.0762
diagonal:  Solving for rho, Initial residual = 0, Final residual = 0, No Iterations 0
PIMPLE: iteration 1
smoothSolver:  Solving for Ux, Initial residual = 0.00610561, Final residual = 6.35929e-16, No Iterations 2
smoothSolver:  Solving for e, Initial residual = 0.00597582, Final residual = 1.91024e-14, No Iterations 1000
smoothSolver:  Solving for p, Initial residual = 0.00607862, Final residual = 8.33124e-15, No Iterations 1000
diagonal:  Solving for rho, Initial residual = 0, Final residual = 0, No Iterations 0
time step continuity errors : sum local = 1.8354e-16, global = -2.32933e-17, cumulative = -2.87246e-15
PIMPLE: iteration 2
smoothSolver:  Solving for Ux, Initial residual = 5.60361e-05, Final residual = 5.78641e-16, No Iterations 2
smoothSolver:  Solving for e, Initial residual = 0.000859109, Final residual = 1.87358e-14, No Iterations 1000
smoothSolver:  Solving for p, Initial residual = 0.000159054, Final residual = 8.42941e-15, No Iterations 1000
diagonal:  Solving for rho, Initial residual = 0, Final residual = 0, No Iterations 0
time step continuity errors : sum local = 1.82277e-16, global = -2.03466e-17, cumulative = -2.8928e-15
ExecutionTime = 6.24 s  ClockTime = 6 s

Time = 0.00045

Courant Number mean: 0.0741047 max: 0.0762
diagonal:  Solving for rho, Initial residual = 0, Final residual = 0, No Iterations 0
PIMPLE: iteration 1
smoothSolver:  Solving for Ux, Initial residual = 0.00596694, Final residual = 6.22497e-16, No Iterations 2
smoothSolver:  Solving for e, Initial residual = 0.00584484, Final residual = 1.81839e-14, No Iterations 1000
smoothSolver:  Solving for p, Initial residual = 0.00594362, Final residual = 8.1327e-15, No Iterations 1000
diagonal:  Solving for rho, Initial residual = 0, Final residual = 0, No Iterations 0
time step continuity errors : sum local = 1.92366e-16, global = -3.22714e-18, cumulative = -2.89603e-15
PIMPLE: iteration 2
smoothSolver:  Solving for Ux, Initial residual = 5.43129e-05, Final residual = 5.91271e-16, No Iterations 2
smoothSolver:  Solving for e, Initial residual = 0.000828922, Final residual = 1.87313e-14, No Iterations 1000
smoothSolver:  Solving for p, Initial residual = 0.000154107, Final residual = 7.94624e-15, No Iterations 1000
diagonal:  Solving for rho, Initial residual = 0, Final residual = 0, No Iterations 0
time step continuity errors : sum local = 1.79598e-16, global = -8.69925e-18, cumulative = -2.90473e-15
ExecutionTime = 6.35 s  ClockTime = 6 s

Time = 0.00046

Courant Number mean: 0.0740571 max: 0.0762
diagonal:  Solving for rho, Initial residual = 0, Final residual = 0, No Iterations 0
PIMPLE: iteration 1
smoothSolver:  Solving for Ux, Initial residual = 0.00583504, Final residual = 6.08851e-16, No Iterations 2
smoothSolver:  Solving for e, Initial residual = 0.00571653, Final residual = 1.8889e-14, No Iterations 1000
smoothSolver:  Solving for p, Initial residual = 0.00581332, Final residual = 8.33301e-15, No Iterations 1000
diagonal:  Solving for rho, Initial residual = 0, Final residual = 0, No Iterations 0
time step continuity errors : sum local = 1.91088e-16, global = -1.76778e-17, cumulative = -2.92241e-15
PIMPLE: iteration 2
smoothSolver:  Solving for Ux, Initial residual = 5.26894e-05, Final residual = 5.54614e-16, No Iterations 2
smoothSolver:  Solving for e, Initial residual = 0.000800435, Final residual = 1.74332e-14, No Iterations 1000
smoothSolver:  Solving for p, Initial residual = 0.000147494, Final residual = 8.27613e-15, No Iterations 1000
diagonal:  Solving for rho, Initial residual = 0, Final residual = 0, No Iterations 0
time step continuity errors : sum local = 1.84354e-16, global = -2.27286e-17, cumulative = -2.94513e-15
ExecutionTime = 6.46 s  ClockTime = 6 s

Time = 0.00047

Courant Number mean: 0.0740097 max: 0.0762
diagonal:  Solving for rho, Initial residual = 0, Final residual = 0, No Iterations 0
PIMPLE: iteration 1
smoothSolver:  Solving for Ux, Initial residual = 0.00570786, Final residual = 6.07537e-16, No Iterations 2
smoothSolver:  Solving for e, Initial residual = 0.00559639, Final residual = 1.78009e-14, No Iterations 1000
smoothSolver:  Solving for p, Initial residual = 0.00568767, Final residual = 7.97297e-15, No Iterations 1000
diagonal:  Solving for rho, Initial residual = 0, Final residual = 0, No Iterations 0
time step continuity errors : sum local = 1.85603e-16, global = -2.2306e-17, cumulative = -2.96744e-15
PIMPLE: iteration 2
smoothSolver:  Solving for Ux, Initial residual = 5.11421e-05, Final residual = 5.62382e-16, No Iterations 2
smoothSolver:  Solving for e, Initial residual = 0.000781245, Final residual = 1.77688e-14, No Iterations 1000
smoothSolver:  Solving for p, Initial residual = 0.000144601, Final residual = 8.03642e-15, No Iterations 1000
diagonal:  Solving for rho, Initial residual = 0, Final residual = 0, No Iterations 0
time step continuity errors : sum local = 1.88829e-16, global = -1.68347e-17, cumulative = -2.98428e-15
ExecutionTime = 6.58 s  ClockTime = 7 s

Time = 0.00048

Courant Number mean: 0.0739621 max: 0.0762
diagonal:  Solving for rho, Initial residual = 0, Final residual = 0, No Iterations 0
PIMPLE: iteration 1
smoothSolver:  Solving for Ux, Initial residual = 0.00558877, Final residual = 5.52667e-16, No Iterations 2
smoothSolver:  Solving for e, Initial residual = 0.00547888, Final residual = 1.78665e-14, No Iterations 1000
smoothSolver:  Solving for p, Initial residual = 0.00556803, Final residual = 7.88119e-15, No Iterations 1000
diagonal:  Solving for rho, Initial residual = 0, Final residual = 0, No Iterations 0
time step continuity errors : sum local = 1.86571e-16, global = -1.09417e-17, cumulative = -2.99522e-15
PIMPLE: iteration 2
smoothSolver:  Solving for Ux, Initial residual = 4.96859e-05, Final residual = 5.3709e-16, No Iterations 2
smoothSolver:  Solving for e, Initial residual = 0.000752782, Final residual = 1.84554e-14, No Iterations 1000
smoothSolver:  Solving for p, Initial residual = 0.000139852, Final residual = 7.3842e-15, No Iterations 1000
diagonal:  Solving for rho, Initial residual = 0, Final residual = 0, No Iterations 0
time step continuity errors : sum local = 1.67773e-16, global = -1.62723e-17, cumulative = -3.01149e-15
ExecutionTime = 6.68 s  ClockTime = 7 s

Time = 0.00049

Courant Number mean: 0.0739146 max: 0.0762
diagonal:  Solving for rho, Initial residual = 0, Final residual = 0, No Iterations 0
PIMPLE: iteration 1
smoothSolver:  Solving for Ux, Initial residual = 0.00547292, Final residual = 5.80158e-16, No Iterations 2
smoothSolver:  Solving for e, Initial residual = 0.00536704, Final residual = 1.7218e-14, No Iterations 1000
smoothSolver:  Solving for p, Initial residual = 0.00545242, Final residual = 7.96485e-15, No Iterations 1000
diagonal:  Solving for rho, Initial residual = 0, Final residual = 0, No Iterations 0
time step continuity errors : sum local = 1.80525e-16, global = 1.26241e-18, cumulative = -3.01023e-15
PIMPLE: iteration 2
smoothSolver:  Solving for Ux, Initial residual = 4.82913e-05, Final residual = 5.77749e-16, No Iterations 2
smoothSolver:  Solving for e, Initial residual = 0.000736762, Final residual = 1.70381e-14, No Iterations 1000
smoothSolver:  Solving for p, Initial residual = 0.000135711, Final residual = 7.86726e-15, No Iterations 1000
diagonal:  Solving for rho, Initial residual = 0, Final residual = 0, No Iterations 0
time step continuity errors : sum local = 1.87398e-16, global = -7.855e-18, cumulative = -3.01808e-15
ExecutionTime = 6.79 s  ClockTime = 7 s

Time = 0.0005

Courant Number mean: 0.0738671 max: 0.0762
diagonal:  Solving for rho, Initial residual = 0, Final residual = 0, No Iterations 0
PIMPLE: iteration 1
smoothSolver:  Solving for Ux, Initial residual = 0.00536431, Final residual = 5.57541e-16, No Iterations 2
smoothSolver:  Solving for e, Initial residual = 0.00525998, Final residual = 1.68318e-14, No Iterations 1000
smoothSolver:  Solving for p, Initial residual = 0.00534243, Final residual = 7.40328e-15, No Iterations 1000
diagonal:  Solving for rho, Initial residual = 0, Final residual = 0, No Iterations 0
time step continuity errors : sum local = 1.84859e-16, global = -9.81801e-18, cumulative = -3.0279e-15
PIMPLE: iteration 2
smoothSolver:  Solving for Ux, Initial residual = 4.69709e-05, Final residual = 5.33375e-16, No Iterations 2
smoothSolver:  Solving for e, Initial residual = 0.000715724, Final residual = 1.6915e-14, No Iterations 1000
smoothSolver:  Solving for p, Initial residual = 0.000132402, Final residual = 7.6747e-15, No Iterations 1000
diagonal:  Solving for rho, Initial residual = 0, Final residual = 0, No Iterations 0
time step continuity errors : sum local = 1.84579e-16, global = -1.17816e-17, cumulative = -3.03968e-15
ExecutionTime = 6.9 s  ClockTime = 7 s

Time = 0.00051

Courant Number mean: 0.0738196 max: 0.0762
diagonal:  Solving for rho, Initial residual = 0, Final residual = 0, No Iterations 0
PIMPLE: iteration 1
smoothSolver:  Solving for Ux, Initial residual = 0.00525758, Final residual = 5.16088e-16, No Iterations 2
smoothSolver:  Solving for e, Initial residual = 0.00515678, Final residual = 1.58901e-14, No Iterations 1000
smoothSolver:  Solving for p, Initial residual = 0.00523775, Final residual = 7.39766e-15, No Iterations 1000
diagonal:  Solving for rho, Initial residual = 0, Final residual = 0, No Iterations 0
time step continuity errors : sum local = 1.91437e-16, global = -1.38844e-17, cumulative = -3.05357e-15
PIMPLE: iteration 2
smoothSolver:  Solving for Ux, Initial residual = 4.57114e-05, Final residual = 5.51396e-16, No Iterations 2
smoothSolver:  Solving for e, Initial residual = 0.000692843, Final residual = 1.65126e-14, No Iterations 1000
smoothSolver:  Solving for p, Initial residual = 0.0001278, Final residual = 7.24975e-15, No Iterations 1000
diagonal:  Solving for rho, Initial residual = 0, Final residual = 0, No Iterations 0
time step continuity errors : sum local = 1.89894e-16, global = -1.68296e-17, cumulative = -3.0704e-15
ExecutionTime = 7.01 s  ClockTime = 7 s

Time = 0.00052

Courant Number mean: 0.0737721 max: 0.0762
diagonal:  Solving for rho, Initial residual = 0, Final residual = 0, No Iterations 0
PIMPLE: iteration 1
smoothSolver:  Solving for Ux, Initial residual = 0.00515694, Final residual = 5.16827e-16, No Iterations 2
smoothSolver:  Solving for e, Initial residual = 0.00505939, Final residual = 1.66153e-14, No Iterations 1000
smoothSolver:  Solving for p, Initial residual = 0.00513686, Final residual = 7.39025e-15, No Iterations 1000
diagonal:  Solving for rho, Initial residual = 0, Final residual = 0, No Iterations 0
time step continuity errors : sum local = 1.88056e-16, global = -1.92123e-17, cumulative = -3.08961e-15
PIMPLE: iteration 2
smoothSolver:  Solving for Ux, Initial residual = 4.45099e-05, Final residual = 5.26032e-16, No Iterations 2
smoothSolver:  Solving for e, Initial residual = 0.000678402, Final residual = 1.61807e-14, No Iterations 1000
smoothSolver:  Solving for p, Initial residual = 0.000124952, Final residual = 7.13306e-15, No Iterations 1000
diagonal:  Solving for rho, Initial residual = 0, Final residual = 0, No Iterations 0
time step continuity errors : sum local = 1.86093e-16, global = -1.16396e-17, cumulative = -3.10125e-15
ExecutionTime = 7.12 s  ClockTime = 7 s

Time = 0.00053

Courant Number mean: 0.0737246 max: 0.0762
diagonal:  Solving for rho, Initial residual = 0, Final residual = 0, No Iterations 0
PIMPLE: iteration 1
smoothSolver:  Solving for Ux, Initial residual = 0.00505784, Final residual = 4.98856e-16, No Iterations 2
smoothSolver:  Solving for e, Initial residual = 0.00496461, Final residual = 1.58364e-14, No Iterations 1000
smoothSolver:  Solving for p, Initial residual = 0.0050398, Final residual = 7.0007e-15, No Iterations 1000
diagonal:  Solving for rho, Initial residual = 0, Final residual = 0, No Iterations 0
time step continuity errors : sum local = 1.75702e-16, global = -1.52846e-17, cumulative = -3.11653e-15
PIMPLE: iteration 2
smoothSolver:  Solving for Ux, Initial residual = 4.33646e-05, Final residual = 5.14356e-16, No Iterations 2
smoothSolver:  Solving for e, Initial residual = 0.000658366, Final residual = 1.6055e-14, No Iterations 1000
smoothSolver:  Solving for p, Initial residual = 0.000121722, Final residual = 7.20311e-15, No Iterations 1000
diagonal:  Solving for rho, Initial residual = 0, Final residual = 0, No Iterations 0
time step continuity errors : sum local = 1.88042e-16, global = -2.17349e-17, cumulative = -3.13827e-15
ExecutionTime = 7.23 s  ClockTime = 7 s

Time = 0.00054

Courant Number mean: 0.0736771 max: 0.0762
diagonal:  Solving for rho, Initial residual = 0, Final residual = 0, No Iterations 0
PIMPLE: iteration 1
smoothSolver:  Solving for Ux, Initial residual = 0.00496511, Final residual = 5.02926e-16, No Iterations 2
smoothSolver:  Solving for e, Initial residual = 0.00487458, Final residual = 1.55705e-14, No Iterations 1000
smoothSolver:  Solving for p, Initial residual = 0.00494557, Final residual = 7.19019e-15, No Iterations 1000
diagonal:  Solving for rho, Initial residual = 0, Final residual = 0, No Iterations 0
time step continuity errors : sum local = 1.83541e-16, global = -1.13574e-17, cumulative = -3.14962e-15
PIMPLE: iteration 2
smoothSolver:  Solving for Ux, Initial residual = 4.22724e-05, Final residual = 4.90538e-16, No Iterations 2
smoothSolver:  Solving for e, Initial residual = 0.000642579, Final residual = 1.56125e-14, No Iterations 1000
smoothSolver:  Solving for p, Initial residual = 0.000117817, Final residual = 6.83272e-15, No Iterations 1000
diagonal:  Solving for rho, Initial residual = 0, Final residual = 0, No Iterations 0
time step continuity errors : sum local = 1.78914e-16, global = -1.03759e-17, cumulative = -3.16e-15
ExecutionTime = 7.34 s  ClockTime = 7 s

Time = 0.00055

Courant Number mean: 0.0736296 max: 0.0762
diagonal:  Solving for rho, Initial residual = 0, Final residual = 0, No Iterations 0
PIMPLE: iteration 1
smoothSolver:  Solving for Ux, Initial residual = 0.0048741, Final residual = 4.87733e-16, No Iterations 2
smoothSolver:  Solving for e, Initial residual = 0.00478588, Final residual = 1.55021e-14, No Iterations 1000
smoothSolver:  Solving for p, Initial residual = 0.00485601, Final residual = 6.57379e-15, No Iterations 1000
diagonal:  Solving for rho, Initial residual = 0, Final residual = 0, No Iterations 0
time step continuity errors : sum local = 1.73573e-16, global = -1.20576e-17, cumulative = -3.17206e-15
PIMPLE: iteration 2
smoothSolver:  Solving for Ux, Initial residual = 4.12264e-05, Final residual = 5.08852e-16, No Iterations 2
smoothSolver:  Solving for e, Initial residual = 0.000628505, Final residual = 1.44535e-14, No Iterations 1000
smoothSolver:  Solving for p, Initial residual = 0.000115719, Final residual = 7.02913e-15, No Iterations 1000
diagonal:  Solving for rho, Initial residual = 0, Final residual = 0, No Iterations 0
time step continuity errors : sum local = 1.83387e-16, global = -2.77604e-17, cumulative = -3.19982e-15
ExecutionTime = 7.45 s  ClockTime = 7 s

Time = 0.00056

Courant Number mean: 0.0735822 max: 0.0762
diagonal:  Solving for rho, Initial residual = 0, Final residual = 0, No Iterations 0
PIMPLE: iteration 1
smoothSolver:  Solving for Ux, Initial residual = 0.00478822, Final residual = 4.8247e-16, No Iterations 2
smoothSolver:  Solving for e, Initial residual = 0.00470269, Final residual = 1.52725e-14, No Iterations 1000
smoothSolver:  Solving for p, Initial residual = 0.00476878, Final residual = 6.58594e-15, No Iterations 1000
diagonal:  Solving for rho, Initial residual = 0, Final residual = 0, No Iterations 0
time step continuity errors : sum local = 1.72999e-16, global = -1.48605e-17, cumulative = -3.21468e-15
PIMPLE: iteration 2
smoothSolver:  Solving for Ux, Initial residual = 4.02263e-05, Final residual = 4.82488e-16, No Iterations 2
smoothSolver:  Solving for e, Initial residual = 0.000607922, Final residual = 1.49943e-14, No Iterations 1000
smoothSolver:  Solving for p, Initial residual = 0.000112328, Final residual = 6.55945e-15, No Iterations 1000
diagonal:  Solving for rho, Initial residual = 0, Final residual = 0, No Iterations 0
time step continuity errors : sum local = 1.77205e-16, global = -1.20566e-17, cumulative = -3.22674e-15
ExecutionTime = 7.56 s  ClockTime = 8 s

Time = 0.00057

Courant Number mean: 0.0735346 max: 0.0762
diagonal:  Solving for rho, Initial residual = 0, Final residual = 0, No Iterations 0
PIMPLE: iteration 1
smoothSolver:  Solving for Ux, Initial residual = 0.00470357, Final residual = 4.73665e-16, No Iterations 2
smoothSolver:  Solving for e, Initial residual = 0.00462033, Final residual = 1.44151e-14, No Iterations 1000
smoothSolver:  Solving for p, Initial residual = 0.00468589, Final residual = 6.31596e-15, No Iterations 1000
diagonal:  Solving for rho, Initial residual = 0, Final residual = 0, No Iterations 0
time step continuity errors : sum local = 1.77331e-16, global = -9.11188e-18, cumulative = -3.23585e-15
PIMPLE: iteration 2
smoothSolver:  Solving for Ux, Initial residual = 3.92708e-05, Final residual = 4.72188e-16, No Iterations 2
smoothSolver:  Solving for e, Initial residual = 0.000598187, Final residual = 1.40573e-14, No Iterations 1000
smoothSolver:  Solving for p, Initial residual = 0.000109678, Final residual = 6.8026e-15, No Iterations 1000
diagonal:  Solving for rho, Initial residual = 0, Final residual = 0, No Iterations 0
time step continuity errors : sum local = 1.84761e-16, global = -1.00932e-17, cumulative = -3.24594e-15
ExecutionTime = 7.67 s  ClockTime = 8 s

Time = 0.00058

Courant Number mean: 0.0734872 max: 0.0762
diagonal:  Solving for rho, Initial residual = 0, Final residual = 0, No Iterations 0
PIMPLE: iteration 1
smoothSolver:  Solving for Ux, Initial residual = 0.00462331, Final residual = 4.63379e-16, No Iterations 2
smoothSolver:  Solving for e, Initial residual = 0.00454321, Final residual = 1.48521e-14, No Iterations 1000
smoothSolver:  Solving for p, Initial residual = 0.0046057, Final residual = 6.60559e-15, No Iterations 1000
diagonal:  Solving for rho, Initial residual = 0, Final residual = 0, No Iterations 0
time step continuity errors : sum local = 1.75776e-16, global = -5.32654e-18, cumulative = -3.25127e-15
PIMPLE: iteration 2
smoothSolver:  Solving for Ux, Initial residual = 3.83509e-05, Final residual = 4.4839e-16, No Iterations 2
smoothSolver:  Solving for e, Initial residual = 0.000582981, Final residual = 1.44514e-14, No Iterations 1000
smoothSolver:  Solving for p, Initial residual = 0.000107315, Final residual = 6.45042e-15, No Iterations 1000
diagonal:  Solving for rho, Initial residual = 0, Final residual = 0, No Iterations 0
time step continuity errors : sum local = 1.82224e-16, global = -1.96241e-18, cumulative = -3.25323e-15
ExecutionTime = 7.78 s  ClockTime = 8 s

Time = 0.00059

Courant Number mean: 0.0734397 max: 0.0762
diagonal:  Solving for rho, Initial residual = 0, Final residual = 0, No Iterations 0
PIMPLE: iteration 1
smoothSolver:  Solving for Ux, Initial residual = 0.0045444, Final residual = 4.5615e-16, No Iterations 2
smoothSolver:  Solving for e, Initial residual = 0.00446684, Final residual = 1.39361e-14, No Iterations 1000
smoothSolver:  Solving for p, Initial residual = 0.00452818, Final residual = 6.14475e-15, No Iterations 1000
diagonal:  Solving for rho, Initial residual = 0, Final residual = 0, No Iterations 0
time step continuity errors : sum local = 1.76043e-16, global = -1.51374e-17, cumulative = -3.26837e-15
PIMPLE: iteration 2
smoothSolver:  Solving for Ux, Initial residual = 3.74753e-05, Final residual = 4.53481e-16, No Iterations 2
smoothSolver:  Solving for e, Initial residual = 0.000568054, Final residual = 1.46749e-14, No Iterations 1000
smoothSolver:  Solving for p, Initial residual = 0.000104001, Final residual = 6.34709e-15, No Iterations 1000
diagonal:  Solving for rho, Initial residual = 0, Final residual = 0, No Iterations 0
time step continuity errors : sum local = 1.70156e-16, global = -4.20485e-18, cumulative = -3.27257e-15
ExecutionTime = 7.88 s  ClockTime = 8 s

Time = 0.0006

Courant Number mean: 0.0733923 max: 0.0762
diagonal:  Solving for rho, Initial residual = 0, Final residual = 0, No Iterations 0
PIMPLE: iteration 1
smoothSolver:  Solving for Ux, Initial residual = 0.00447005, Final residual = 4.7067e-16, No Iterations 2
smoothSolver:  Solving for e, Initial residual = 0.00439477, Final residual = 1.43036e-14, No Iterations 1000
smoothSolver:  Solving for p, Initial residual = 0.00445367, Final residual = 6.41228e-15, No Iterations 1000
diagonal:  Solving for rho, Initial residual = 0, Final residual = 0, No Iterations 0
time step continuity errors : sum local = 1.90465e-16, global = -2.94317e-18, cumulative = -3.27552e-15
PIMPLE: iteration 2
smoothSolver:  Solving for Ux, Initial residual = 3.66282e-05, Final residual = 4.65764e-16, No Iterations 2
smoothSolver:  Solving for e, Initial residual = 0.000558151, Final residual = 1.4344e-14, No Iterations 1000
smoothSolver:  Solving for p, Initial residual = 0.000102335, Final residual = 6.36934e-15, No Iterations 1000
diagonal:  Solving for rho, Initial residual = 0, Final residual = 0, No Iterations 0
time step continuity errors : sum local = 1.83458e-16, global = -1.41552e-17, cumulative = -3.28967e-15
ExecutionTime = 7.99 s  ClockTime = 8 s

Time = 0.00061

Courant Number mean: 0.0733447 max: 0.0762
diagonal:  Solving for rho, Initial residual = 0, Final residual = 0, No Iterations 0
PIMPLE: iteration 1
smoothSolver:  Solving for Ux, Initial residual = 0.00439652, Final residual = 4.3166e-16, No Iterations 2
smoothSolver:  Solving for e, Initial residual = 0.00432279, Final residual = 1.41241e-14, No Iterations 1000
smoothSolver:  Solving for p, Initial residual = 0.00438059, Final residual = 5.93015e-15, No Iterations 1000
diagonal:  Solving for rho, Initial residual = 0, Final residual = 0, No Iterations 0
time step continuity errors : sum local = 1.72232e-16, global = -8.26828e-18, cumulative = -3.29794e-15
PIMPLE: iteration 2
smoothSolver:  Solving for Ux, Initial residual = 3.58201e-05, Final residual = 4.45833e-16, No Iterations 2
smoothSolver:  Solving for e, Initial residual = 0.000543214, Final residual = 1.3743e-14, No Iterations 1000
smoothSolver:  Solving for p, Initial residual = 9.99543e-05, Final residual = 5.96159e-15, No Iterations 1000
diagonal:  Solving for rho, Initial residual = 0, Final residual = 0, No Iterations 0
time step continuity errors : sum local = 1.86387e-16, global = -8.6887e-18, cumulative = -3.30663e-15
ExecutionTime = 8.1 s  ClockTime = 8 s

Time = 0.00062

Courant Number mean: 0.0732973 max: 0.0762
diagonal:  Solving for rho, Initial residual = 0, Final residual = 0, No Iterations 0
PIMPLE: iteration 1
smoothSolver:  Solving for Ux, Initial residual = 0.00432736, Final residual = 4.4954e-16, No Iterations 2
smoothSolver:  Solving for e, Initial residual = 0.00425549, Final residual = 1.42583e-14, No Iterations 1000
smoothSolver:  Solving for p, Initial residual = 0.00431182, Final residual = 6.21159e-15, No Iterations 1000
diagonal:  Solving for rho, Initial residual = 0, Final residual = 0, No Iterations 0
time step continuity errors : sum local = 1.81188e-16, global = -8.82817e-18, cumulative = -3.31546e-15
PIMPLE: iteration 2
smoothSolver:  Solving for Ux, Initial residual = 3.5041e-05, Final residual = 4.33991e-16, No Iterations 2
smoothSolver:  Solving for e, Initial residual = 0.000532807, Final residual = 1.3048e-14, No Iterations 1000
smoothSolver:  Solving for p, Initial residual = 9.72999e-05, Final residual = 5.99747e-15, No Iterations 1000
diagonal:  Solving for rho, Initial residual = 0, Final residual = 0, No Iterations 0
time step continuity errors : sum local = 1.77965e-16, global = -5.60519e-18, cumulative = -3.32106e-15
ExecutionTime = 8.21 s  ClockTime = 8 s

Time = 0.00063

[...]
smoothSolver:  Solving for p, Initial residual = 0.00220907, Final residual = 3.03192e-15, No Iterations 1000
diagonal:  Solving for rho, Initial residual = 0, Final residual = 0, No Iterations 0
time step continuity errors : sum local = 1.95537e-16, global = 5.31214e-18, cumulative = -7.82053e-15
PIMPLE: iteration 2
smoothSolver:  Solving for Ux, Initial residual = 9.12231e-06, Final residual = 1.70391e-17, No Iterations 2
smoothSolver:  Solving for e, Initial residual = 0.000143204, Final residual = 8.08644e-15, No Iterations 1000
smoothSolver:  Solving for p, Initial residual = 2.50205e-05, Final residual = 3.16496e-15, No Iterations 1000
diagonal:  Solving for rho, Initial residual = 0, Final residual = 0, No Iterations 0
time step continuity errors : sum local = 1.98447e-16, global = -2.97227e-17, cumulative = -7.85025e-15
ExecutionTime = 138.97 s  ClockTime = 143 s

Time = 0.01486

Courant Number mean: 0.0058541 max: 0.0762
diagonal:  Solving for rho, Initial residual = 0, Final residual = 0, No Iterations 0
PIMPLE: iteration 1
smoothSolver:  Solving for Ux, Initial residual = 0.00222372, Final residual = 2.00037e-17, No Iterations 2
smoothSolver:  Solving for e, Initial residual = 0.00221483, Final residual = 8.11374e-15, No Iterations 1000
smoothSolver:  Solving for p, Initial residual = 0.00222545, Final residual = 3.09828e-15, No Iterations 1000
diagonal:  Solving for rho, Initial residual = 0, Final residual = 0, No Iterations 0
time step continuity errors : sum local = 1.94386e-16, global = -3.9206e-18, cumulative = -7.85417e-15
PIMPLE: iteration 2
smoothSolver:  Solving for Ux, Initial residual = 9.19013e-06, Final residual = 1.79366e-17, No Iterations 2
smoothSolver:  Solving for e, Initial residual = 0.000144408, Final residual = 8.10728e-15, No Iterations 1000
smoothSolver:  Solving for p, Initial residual = 2.52683e-05, Final residual = 3.25298e-15, No Iterations 1000
diagonal:  Solving for rho, Initial residual = 0, Final residual = 0, No Iterations 0
time step continuity errors : sum local = 1.91224e-16, global = -1.44177e-17, cumulative = -7.86859e-15
ExecutionTime = 139.08 s  ClockTime = 143 s

Time = 0.01487

Courant Number mean: 0.00580675 max: 0.0762
diagonal:  Solving for rho, Initial residual = 0, Final residual = 0, No Iterations 0
PIMPLE: iteration 1
smoothSolver:  Solving for Ux, Initial residual = 0.00224037, Final residual = 1.87973e-17, No Iterations 2
smoothSolver:  Solving for e, Initial residual = 0.00223138, Final residual = 8.26917e-15, No Iterations 1000
smoothSolver:  Solving for p, Initial residual = 0.00224222, Final residual = 3.18074e-15, No Iterations 1000
diagonal:  Solving for rho, Initial residual = 0, Final residual = 0, No Iterations 0
time step continuity errors : sum local = 1.96649e-16, global = 2.39014e-17, cumulative = -7.84469e-15
PIMPLE: iteration 2
smoothSolver:  Solving for Ux, Initial residual = 9.25946e-06, Final residual = 1.69757e-17, No Iterations 2
smoothSolver:  Solving for e, Initial residual = 0.000145224, Final residual = 8.15749e-15, No Iterations 1000
smoothSolver:  Solving for p, Initial residual = 2.5448e-05, Final residual = 3.21009e-15, No Iterations 1000
diagonal:  Solving for rho, Initial residual = 0, Final residual = 0, No Iterations 0
time step continuity errors : sum local = 1.97028e-16, global = -1.13816e-17, cumulative = -7.85607e-15
ExecutionTime = 139.19 s  ClockTime = 143 s

Time = 0.01488

Courant Number mean: 0.0057594 max: 0.0762
diagonal:  Solving for rho, Initial residual = 0, Final residual = 0, No Iterations 0
PIMPLE: iteration 1
smoothSolver:  Solving for Ux, Initial residual = 0.00225732, Final residual = 1.75949e-17, No Iterations 2
smoothSolver:  Solving for e, Initial residual = 0.00224829, Final residual = 8.19162e-15, No Iterations 1000
smoothSolver:  Solving for p, Initial residual = 0.00225908, Final residual = 3.15583e-15, No Iterations 1000
diagonal:  Solving for rho, Initial residual = 0, Final residual = 0, No Iterations 0
time step continuity errors : sum local = 2.04981e-16, global = -3.92006e-18, cumulative = -7.85999e-15
PIMPLE: iteration 2
smoothSolver:  Solving for Ux, Initial residual = 9.32974e-06, Final residual = 2.09319e-17, No Iterations 2
smoothSolver:  Solving for e, Initial residual = 0.000146558, Final residual = 8.04459e-15, No Iterations 1000
smoothSolver:  Solving for p, Initial residual = 2.56201e-05, Final residual = 3.29534e-15, No Iterations 1000
diagonal:  Solving for rho, Initial residual = 0, Final residual = 0, No Iterations 0
time step continuity errors : sum local = 1.92462e-16, global = -2.175e-17, cumulative = -7.88174e-15
ExecutionTime = 139.3 s  ClockTime = 143 s

Time = 0.01489

Courant Number mean: 0.00571205 max: 0.0762
diagonal:  Solving for rho, Initial residual = 0, Final residual = 0, No Iterations 0
PIMPLE: iteration 1
smoothSolver:  Solving for Ux, Initial residual = 0.00227453, Final residual = 1.64252e-17, No Iterations 2
smoothSolver:  Solving for e, Initial residual = 0.00226541, Final residual = 8.52246e-15, No Iterations 1000
smoothSolver:  Solving for p, Initial residual = 0.00227641, Final residual = 3.21041e-15, No Iterations 1000
diagonal:  Solving for rho, Initial residual = 0, Final residual = 0, No Iterations 0
time step continuity errors : sum local = 1.89541e-16, global = 1.22652e-17, cumulative = -7.86947e-15
PIMPLE: iteration 2
smoothSolver:  Solving for Ux, Initial residual = 9.40125e-06, Final residual = 1.92924e-17, No Iterations 2
smoothSolver:  Solving for e, Initial residual = 0.000147676, Final residual = 8.08497e-15, No Iterations 1000
smoothSolver:  Solving for p, Initial residual = 2.58542e-05, Final residual = 3.1836e-15, No Iterations 1000
diagonal:  Solving for rho, Initial residual = 0, Final residual = 0, No Iterations 0
time step continuity errors : sum local = 1.91438e-16, global = -2.37717e-17, cumulative = -7.89325e-15
ExecutionTime = 139.41 s  ClockTime = 143 s

Time = 0.0149

Courant Number mean: 0.0056647 max: 0.0762
diagonal:  Solving for rho, Initial residual = 0, Final residual = 0, No Iterations 0
PIMPLE: iteration 1
smoothSolver:  Solving for Ux, Initial residual = 0.00229205, Final residual = 1.70186e-17, No Iterations 2
smoothSolver:  Solving for e, Initial residual = 0.00228287, Final residual = 8.34709e-15, No Iterations 1000
smoothSolver:  Solving for p, Initial residual = 0.00229395, Final residual = 3.29844e-15, No Iterations 1000
diagonal:  Solving for rho, Initial residual = 0, Final residual = 0, No Iterations 0
time step continuity errors : sum local = 1.937e-16, global = 1.03678e-17, cumulative = -7.88288e-15
PIMPLE: iteration 2
smoothSolver:  Solving for Ux, Initial residual = 9.47414e-06, Final residual = 1.81502e-17, No Iterations 2
smoothSolver:  Solving for e, Initial residual = 0.000148607, Final residual = 8.24921e-15, No Iterations 1000
smoothSolver:  Solving for p, Initial residual = 2.60138e-05, Final residual = 3.14825e-15, No Iterations 1000
diagonal:  Solving for rho, Initial residual = 0, Final residual = 0, No Iterations 0
time step continuity errors : sum local = 1.91172e-16, global = -4.55171e-18, cumulative = -7.88743e-15
ExecutionTime = 139.52 s  ClockTime = 143 s

Time = 0.01491

Courant Number mean: 0.00561734 max: 0.0762
diagonal:  Solving for rho, Initial residual = 0, Final residual = 0, No Iterations 0
PIMPLE: iteration 1
smoothSolver:  Solving for Ux, Initial residual = 0.00230985, Final residual = 1.87011e-17, No Iterations 2
smoothSolver:  Solving for e, Initial residual = 0.0023006, Final residual = 8.77498e-15, No Iterations 1000
smoothSolver:  Solving for p, Initial residual = 0.0023117, Final residual = 3.14825e-15, No Iterations 1000
diagonal:  Solving for rho, Initial residual = 0, Final residual = 0, No Iterations 0
time step continuity errors : sum local = 1.97733e-16, global = 2.78141e-18, cumulative = -7.88465e-15
PIMPLE: iteration 2
smoothSolver:  Solving for Ux, Initial residual = 9.54795e-06, Final residual = 1.92033e-17, No Iterations 2
smoothSolver:  Solving for e, Initial residual = 0.000150031, Final residual = 8.41661e-15, No Iterations 1000
smoothSolver:  Solving for p, Initial residual = 2.6242e-05, Final residual = 3.25811e-15, No Iterations 1000
diagonal:  Solving for rho, Initial residual = 0, Final residual = 0, No Iterations 0
time step continuity errors : sum local = 1.92297e-16, global = -1.98491e-17, cumulative = -7.9045e-15
ExecutionTime = 139.63 s  ClockTime = 143 s

Time = 0.01492

Courant Number mean: 0.00556999 max: 0.0762
diagonal:  Solving for rho, Initial residual = 0, Final residual = 0, No Iterations 0
PIMPLE: iteration 1
smoothSolver:  Solving for Ux, Initial residual = 0.00232797, Final residual = 1.92414e-17, No Iterations 2
smoothSolver:  Solving for e, Initial residual = 0.00231862, Final residual = 8.45872e-15, No Iterations 1000
smoothSolver:  Solving for p, Initial residual = 0.00232995, Final residual = 3.36486e-15, No Iterations 1000
diagonal:  Solving for rho, Initial residual = 0, Final residual = 0, No Iterations 0
time step continuity errors : sum local = 1.90134e-16, global = 5.81528e-18, cumulative = -7.89868e-15
PIMPLE: iteration 2
smoothSolver:  Solving for Ux, Initial residual = 9.62345e-06, Final residual = 1.723e-17, No Iterations 2
smoothSolver:  Solving for e, Initial residual = 0.000151061, Final residual = 8.70409e-15, No Iterations 1000
smoothSolver:  Solving for p, Initial residual = 2.64604e-05, Final residual = 3.44642e-15, No Iterations 1000
diagonal:  Solving for rho, Initial residual = 0, Final residual = 0, No Iterations 0
time step continuity errors : sum local = 1.97719e-16, global = -1.31476e-17, cumulative = -7.91183e-15
ExecutionTime = 139.73 s  ClockTime = 144 s

Time = 0.01493

Courant Number mean: 0.00552264 max: 0.0762
diagonal:  Solving for rho, Initial residual = 0, Final residual = 0, No Iterations 0
PIMPLE: iteration 1
smoothSolver:  Solving for Ux, Initial residual = 0.00234639, Final residual = 1.65664e-17, No Iterations 2
smoothSolver:  Solving for e, Initial residual = 0.002337, Final residual = 8.66977e-15, No Iterations 1000
smoothSolver:  Solving for p, Initial residual = 0.00234832, Final residual = 3.41834e-15, No Iterations 1000
diagonal:  Solving for rho, Initial residual = 0, Final residual = 0, No Iterations 0
time step continuity errors : sum local = 1.94798e-16, global = 2.90744e-18, cumulative = -7.90892e-15
PIMPLE: iteration 2
smoothSolver:  Solving for Ux, Initial residual = 9.69983e-06, Final residual = 1.68016e-17, No Iterations 2
smoothSolver:  Solving for e, Initial residual = 0.000152296, Final residual = 8.81229e-15, No Iterations 1000
smoothSolver:  Solving for p, Initial residual = 2.66125e-05, Final residual = 3.40219e-15, No Iterations 1000
diagonal:  Solving for rho, Initial residual = 0, Final residual = 0, No Iterations 0
time step continuity errors : sum local = 1.972e-16, global = -8.59591e-18, cumulative = -7.91752e-15
ExecutionTime = 139.84 s  ClockTime = 144 s

Time = 0.01494

Courant Number mean: 0.00547529 max: 0.0762
diagonal:  Solving for rho, Initial residual = 0, Final residual = 0, No Iterations 0
PIMPLE: iteration 1
smoothSolver:  Solving for Ux, Initial residual = 0.00236513, Final residual = 2.11048e-17, No Iterations 2
smoothSolver:  Solving for e, Initial residual = 0.00235564, Final residual = 8.69272e-15, No Iterations 1000
smoothSolver:  Solving for p, Initial residual = 0.00236715, Final residual = 3.45501e-15, No Iterations 1000
diagonal:  Solving for rho, Initial residual = 0, Final residual = 0, No Iterations 0
time step continuity errors : sum local = 1.98324e-16, global = 7.2049e-18, cumulative = -7.91031e-15
PIMPLE: iteration 2
smoothSolver:  Solving for Ux, Initial residual = 9.77781e-06, Final residual = 2.47428e-17, No Iterations 2
smoothSolver:  Solving for e, Initial residual = 0.000153637, Final residual = 8.67983e-15, No Iterations 1000
smoothSolver:  Solving for p, Initial residual = 2.68877e-05, Final residual = 3.21854e-15, No Iterations 1000
diagonal:  Solving for rho, Initial residual = 0, Final residual = 0, No Iterations 0
time step continuity errors : sum local = 1.93268e-16, global = -2.66708e-17, cumulative = -7.93698e-15
ExecutionTime = 139.95 s  ClockTime = 144 s

Time = 0.01495

Courant Number mean: 0.00542794 max: 0.0762
diagonal:  Solving for rho, Initial residual = 0, Final residual = 0, No Iterations 0
PIMPLE: iteration 1
smoothSolver:  Solving for Ux, Initial residual = 0.00238423, Final residual = 1.70305e-17, No Iterations 2
smoothSolver:  Solving for e, Initial residual = 0.00237465, Final residual = 8.94316e-15, No Iterations 1000
smoothSolver:  Solving for p, Initial residual = 0.0023863, Final residual = 3.28639e-15, No Iterations 1000
diagonal:  Solving for rho, Initial residual = 0, Final residual = 0, No Iterations 0
time step continuity errors : sum local = 1.94266e-16, global = 3.91819e-18, cumulative = -7.93307e-15
PIMPLE: iteration 2
smoothSolver:  Solving for Ux, Initial residual = 9.85713e-06, Final residual = 1.80903e-17, No Iterations 2
smoothSolver:  Solving for e, Initial residual = 0.000154556, Final residual = 8.57405e-15, No Iterations 1000
smoothSolver:  Solving for p, Initial residual = 2.70869e-05, Final residual = 3.50004e-15, No Iterations 1000
diagonal:  Solving for rho, Initial residual = 0, Final residual = 0, No Iterations 0
time step continuity errors : sum local = 1.95025e-16, global = -7.70998e-18, cumulative = -7.94078e-15
ExecutionTime = 140.06 s  ClockTime = 144 s

Time = 0.01496

Courant Number mean: 0.00538059 max: 0.0762
diagonal:  Solving for rho, Initial residual = 0, Final residual = 0, No Iterations 0
PIMPLE: iteration 1
smoothSolver:  Solving for Ux, Initial residual = 0.00240362, Final residual = 1.93356e-17, No Iterations 2
smoothSolver:  Solving for e, Initial residual = 0.00239396, Final residual = 8.55352e-15, No Iterations 1000
smoothSolver:  Solving for p, Initial residual = 0.00240562, Final residual = 3.38234e-15, No Iterations 1000
diagonal:  Solving for rho, Initial residual = 0, Final residual = 0, No Iterations 0
time step continuity errors : sum local = 1.92863e-16, global = 1.56717e-17, cumulative = -7.9251e-15
PIMPLE: iteration 2
smoothSolver:  Solving for Ux, Initial residual = 9.93775e-06, Final residual = 1.97901e-17, No Iterations 2
smoothSolver:  Solving for e, Initial residual = 0.00015612, Final residual = 8.258e-15, No Iterations 1000
smoothSolver:  Solving for p, Initial residual = 2.72964e-05, Final residual = 3.50591e-15, No Iterations 1000
diagonal:  Solving for rho, Initial residual = 0, Final residual = 0, No Iterations 0
time step continuity errors : sum local = 1.91725e-16, global = -2.4645e-17, cumulative = -7.94975e-15
ExecutionTime = 140.17 s  ClockTime = 144 s

Time = 0.01497

Courant Number mean: 0.00533323 max: 0.0762
diagonal:  Solving for rho, Initial residual = 0, Final residual = 0, No Iterations 0
PIMPLE: iteration 1
smoothSolver:  Solving for Ux, Initial residual = 0.00242341, Final residual = 1.53973e-17, No Iterations 2
smoothSolver:  Solving for e, Initial residual = 0.00241366, Final residual = 8.58784e-15, No Iterations 1000
smoothSolver:  Solving for p, Initial residual = 0.00242553, Final residual = 3.44747e-15, No Iterations 1000
diagonal:  Solving for rho, Initial residual = 0, Final residual = 0, No Iterations 0
time step continuity errors : sum local = 1.9424e-16, global = 1.20057e-17, cumulative = -7.93774e-15
PIMPLE: iteration 2
smoothSolver:  Solving for Ux, Initial residual = 1.00202e-05, Final residual = 2.01069e-17, No Iterations 2
smoothSolver:  Solving for e, Initial residual = 0.000157382, Final residual = 8.63616e-15, No Iterations 1000
smoothSolver:  Solving for p, Initial residual = 2.75569e-05, Final residual = 3.38013e-15, No Iterations 1000
diagonal:  Solving for rho, Initial residual = 0, Final residual = 0, No Iterations 0
time step continuity errors : sum local = 1.88174e-16, global = -2.41378e-17, cumulative = -7.96188e-15
ExecutionTime = 140.28 s  ClockTime = 144 s

Time = 0.01498

Courant Number mean: 0.00528588 max: 0.0762
diagonal:  Solving for rho, Initial residual = 0, Final residual = 0, No Iterations 0
PIMPLE: iteration 1
smoothSolver:  Solving for Ux, Initial residual = 0.00244351, Final residual = 1.8553e-17, No Iterations 2
smoothSolver:  Solving for e, Initial residual = 0.00243369, Final residual = 9.1846e-15, No Iterations 1000
smoothSolver:  Solving for p, Initial residual = 0.00244565, Final residual = 3.37779e-15, No Iterations 1000
diagonal:  Solving for rho, Initial residual = 0, Final residual = 0, No Iterations 0
time step continuity errors : sum local = 1.8854e-16, global = 7.58203e-18, cumulative = -7.9543e-15
PIMPLE: iteration 2
smoothSolver:  Solving for Ux, Initial residual = 1.01036e-05, Final residual = 1.74867e-17, No Iterations 2
smoothSolver:  Solving for e, Initial residual = 0.000158517, Final residual = 8.98757e-15, No Iterations 1000
smoothSolver:  Solving for p, Initial residual = 2.77363e-05, Final residual = 3.62173e-15, No Iterations 1000
diagonal:  Solving for rho, Initial residual = 0, Final residual = 0, No Iterations 0
time step continuity errors : sum local = 1.9549e-16, global = -1.45322e-17, cumulative = -7.96883e-15
ExecutionTime = 140.39 s  ClockTime = 144 s

Time = 0.01499

Courant Number mean: 0.00523853 max: 0.0762
diagonal:  Solving for rho, Initial residual = 0, Final residual = 0, No Iterations 0
PIMPLE: iteration 1
smoothSolver:  Solving for Ux, Initial residual = 0.00246398, Final residual = 2.09367e-17, No Iterations 2
smoothSolver:  Solving for e, Initial residual = 0.00245408, Final residual = 8.74214e-15, No Iterations 1000
smoothSolver:  Solving for p, Initial residual = 0.00246613, Final residual = 3.38479e-15, No Iterations 1000
diagonal:  Solving for rho, Initial residual = 0, Final residual = 0, No Iterations 0
time step continuity errors : sum local = 1.93581e-16, global = -3.28532e-18, cumulative = -7.97212e-15
PIMPLE: iteration 2
smoothSolver:  Solving for Ux, Initial residual = 1.01889e-05, Final residual = 1.66688e-17, No Iterations 2
smoothSolver:  Solving for e, Initial residual = 0.000160107, Final residual = 9.00366e-15, No Iterations 1000
smoothSolver:  Solving for p, Initial residual = 2.80087e-05, Final residual = 3.58493e-15, No Iterations 1000
diagonal:  Solving for rho, Initial residual = 0, Final residual = 0, No Iterations 0
time step continuity errors : sum local = 1.92318e-16, global = -1.59212e-17, cumulative = -7.98804e-15
ExecutionTime = 140.5 s  ClockTime = 144 s

Time = 0.015

Courant Number mean: 0.00519118 max: 0.0762
diagonal:  Solving for rho, Initial residual = 0, Final residual = 0, No Iterations 0
PIMPLE: iteration 1
smoothSolver:  Solving for Ux, Initial residual = 0.00248488, Final residual = 1.91232e-17, No Iterations 2
smoothSolver:  Solving for e, Initial residual = 0.00247485, Final residual = 8.97406e-15, No Iterations 1000
smoothSolver:  Solving for p, Initial residual = 0.0024871, Final residual = 3.6124e-15, No Iterations 1000
diagonal:  Solving for rho, Initial residual = 0, Final residual = 0, No Iterations 0
time step continuity errors : sum local = 1.90157e-16, global = 1.17505e-17, cumulative = -7.97629e-15
PIMPLE: iteration 2
smoothSolver:  Solving for Ux, Initial residual = 1.02756e-05, Final residual = 1.86321e-17, No Iterations 2
smoothSolver:  Solving for e, Initial residual = 0.000161264, Final residual = 9.19731e-15, No Iterations 1000
smoothSolver:  Solving for p, Initial residual = 2.8252e-05, Final residual = 3.52768e-15, No Iterations 1000
diagonal:  Solving for rho, Initial residual = 0, Final residual = 0, No Iterations 0
time step continuity errors : sum local = 1.88261e-16, global = -6.06479e-18, cumulative = -7.98235e-15
ExecutionTime = 140.61 s  ClockTime = 145 s

writeRegisteredObject rhofunc output:
    writing object rho

End

